*SPEF "ieee 1481-1999"
*DESIGN "right_tile"
*DATE "11:11:11 Fri 11 11, 1111"
*VENDOR "OpenRCX"
*PROGRAM "Parallel Extraction"
*VERSION "1.0"
*DESIGN_FLOW "NAME_SCOPE LOCAL" "PIN_CAP NONE"
*DIVIDER /
*DELIMITER :
*BUS_DELIMITER []
*T_UNIT 1 NS
*C_UNIT 1 PF
*R_UNIT 1 OHM
*L_UNIT 1 HENRY

*NAME_MAP
*3 bottom_width_0_height_0_subtile_0__pin_cout_0_
*4 bottom_width_0_height_0_subtile_0__pin_reg_out_0_
*5 ccff_head_0_0
*6 ccff_head_1
*7 ccff_head_2
*8 ccff_tail
*9 ccff_tail_0
*10 ccff_tail_1
*11 chanx_left_in[0]
*12 chanx_left_in[10]
*13 chanx_left_in[11]
*14 chanx_left_in[12]
*15 chanx_left_in[13]
*16 chanx_left_in[14]
*17 chanx_left_in[15]
*18 chanx_left_in[16]
*19 chanx_left_in[17]
*20 chanx_left_in[18]
*21 chanx_left_in[19]
*22 chanx_left_in[1]
*23 chanx_left_in[20]
*24 chanx_left_in[21]
*25 chanx_left_in[22]
*26 chanx_left_in[23]
*27 chanx_left_in[24]
*28 chanx_left_in[25]
*29 chanx_left_in[26]
*30 chanx_left_in[27]
*31 chanx_left_in[28]
*32 chanx_left_in[29]
*33 chanx_left_in[2]
*34 chanx_left_in[3]
*35 chanx_left_in[4]
*36 chanx_left_in[5]
*37 chanx_left_in[6]
*38 chanx_left_in[7]
*39 chanx_left_in[8]
*40 chanx_left_in[9]
*41 chanx_left_out[0]
*42 chanx_left_out[10]
*43 chanx_left_out[11]
*44 chanx_left_out[12]
*45 chanx_left_out[13]
*46 chanx_left_out[14]
*47 chanx_left_out[15]
*48 chanx_left_out[16]
*49 chanx_left_out[17]
*50 chanx_left_out[18]
*51 chanx_left_out[19]
*52 chanx_left_out[1]
*53 chanx_left_out[20]
*54 chanx_left_out[21]
*55 chanx_left_out[22]
*56 chanx_left_out[23]
*57 chanx_left_out[24]
*58 chanx_left_out[25]
*59 chanx_left_out[26]
*60 chanx_left_out[27]
*61 chanx_left_out[28]
*62 chanx_left_out[29]
*63 chanx_left_out[2]
*64 chanx_left_out[3]
*65 chanx_left_out[4]
*66 chanx_left_out[5]
*67 chanx_left_out[6]
*68 chanx_left_out[7]
*69 chanx_left_out[8]
*70 chanx_left_out[9]
*71 chany_bottom_in[0]
*72 chany_bottom_in[10]
*73 chany_bottom_in[11]
*74 chany_bottom_in[12]
*75 chany_bottom_in[13]
*76 chany_bottom_in[14]
*77 chany_bottom_in[15]
*78 chany_bottom_in[16]
*79 chany_bottom_in[17]
*80 chany_bottom_in[18]
*81 chany_bottom_in[19]
*82 chany_bottom_in[1]
*83 chany_bottom_in[20]
*84 chany_bottom_in[21]
*85 chany_bottom_in[22]
*86 chany_bottom_in[23]
*87 chany_bottom_in[24]
*88 chany_bottom_in[25]
*89 chany_bottom_in[26]
*90 chany_bottom_in[27]
*91 chany_bottom_in[28]
*92 chany_bottom_in[29]
*93 chany_bottom_in[2]
*94 chany_bottom_in[3]
*95 chany_bottom_in[4]
*96 chany_bottom_in[5]
*97 chany_bottom_in[6]
*98 chany_bottom_in[7]
*99 chany_bottom_in[8]
*100 chany_bottom_in[9]
*101 chany_bottom_out[0]
*102 chany_bottom_out[10]
*103 chany_bottom_out[11]
*104 chany_bottom_out[12]
*105 chany_bottom_out[13]
*106 chany_bottom_out[14]
*107 chany_bottom_out[15]
*108 chany_bottom_out[16]
*109 chany_bottom_out[17]
*110 chany_bottom_out[18]
*111 chany_bottom_out[19]
*112 chany_bottom_out[1]
*113 chany_bottom_out[20]
*114 chany_bottom_out[21]
*115 chany_bottom_out[22]
*116 chany_bottom_out[23]
*117 chany_bottom_out[24]
*118 chany_bottom_out[25]
*119 chany_bottom_out[26]
*120 chany_bottom_out[27]
*121 chany_bottom_out[28]
*122 chany_bottom_out[29]
*123 chany_bottom_out[2]
*124 chany_bottom_out[3]
*125 chany_bottom_out[4]
*126 chany_bottom_out[5]
*127 chany_bottom_out[6]
*128 chany_bottom_out[7]
*129 chany_bottom_out[8]
*130 chany_bottom_out[9]
*131 chany_top_in_0[0]
*132 chany_top_in_0[10]
*133 chany_top_in_0[11]
*134 chany_top_in_0[12]
*135 chany_top_in_0[13]
*136 chany_top_in_0[14]
*137 chany_top_in_0[15]
*138 chany_top_in_0[16]
*139 chany_top_in_0[17]
*140 chany_top_in_0[18]
*141 chany_top_in_0[19]
*142 chany_top_in_0[1]
*143 chany_top_in_0[20]
*144 chany_top_in_0[21]
*145 chany_top_in_0[22]
*146 chany_top_in_0[23]
*147 chany_top_in_0[24]
*148 chany_top_in_0[25]
*149 chany_top_in_0[26]
*150 chany_top_in_0[27]
*151 chany_top_in_0[28]
*152 chany_top_in_0[29]
*153 chany_top_in_0[2]
*154 chany_top_in_0[3]
*155 chany_top_in_0[4]
*156 chany_top_in_0[5]
*157 chany_top_in_0[6]
*158 chany_top_in_0[7]
*159 chany_top_in_0[8]
*160 chany_top_in_0[9]
*161 chany_top_out_0[0]
*162 chany_top_out_0[10]
*163 chany_top_out_0[11]
*164 chany_top_out_0[12]
*165 chany_top_out_0[13]
*166 chany_top_out_0[14]
*167 chany_top_out_0[15]
*168 chany_top_out_0[16]
*169 chany_top_out_0[17]
*170 chany_top_out_0[18]
*171 chany_top_out_0[19]
*172 chany_top_out_0[1]
*173 chany_top_out_0[20]
*174 chany_top_out_0[21]
*175 chany_top_out_0[22]
*176 chany_top_out_0[23]
*177 chany_top_out_0[24]
*178 chany_top_out_0[25]
*179 chany_top_out_0[26]
*180 chany_top_out_0[27]
*181 chany_top_out_0[28]
*182 chany_top_out_0[29]
*183 chany_top_out_0[2]
*184 chany_top_out_0[3]
*185 chany_top_out_0[4]
*186 chany_top_out_0[5]
*187 chany_top_out_0[6]
*188 chany_top_out_0[7]
*189 chany_top_out_0[8]
*190 chany_top_out_0[9]
*191 clk0
*192 gfpga_pad_io_soc_dir[0]
*193 gfpga_pad_io_soc_dir[1]
*194 gfpga_pad_io_soc_dir[2]
*195 gfpga_pad_io_soc_dir[3]
*196 gfpga_pad_io_soc_in[0]
*197 gfpga_pad_io_soc_in[1]
*198 gfpga_pad_io_soc_in[2]
*199 gfpga_pad_io_soc_in[3]
*200 gfpga_pad_io_soc_out[0]
*201 gfpga_pad_io_soc_out[1]
*202 gfpga_pad_io_soc_out[2]
*203 gfpga_pad_io_soc_out[3]
*204 isol_n
*205 left_width_0_height_0_subtile_0__pin_inpad_0_
*206 left_width_0_height_0_subtile_1__pin_inpad_0_
*207 left_width_0_height_0_subtile_2__pin_inpad_0_
*208 left_width_0_height_0_subtile_3__pin_inpad_0_
*209 prog_clk
*210 prog_reset_bottom_in
*211 prog_reset_bottom_out
*212 prog_reset_left_in
*213 prog_reset_top_in
*214 prog_reset_top_out
*215 reset_bottom_in
*216 reset_bottom_out
*217 reset_left_out
*218 reset_right_in
*219 reset_top_in
*220 reset_top_out
*221 right_width_0_height_0_subtile_0__pin_O_10_
*222 right_width_0_height_0_subtile_0__pin_O_11_
*223 right_width_0_height_0_subtile_0__pin_O_12_
*224 right_width_0_height_0_subtile_0__pin_O_13_
*225 right_width_0_height_0_subtile_0__pin_O_14_
*226 right_width_0_height_0_subtile_0__pin_O_15_
*227 right_width_0_height_0_subtile_0__pin_O_8_
*228 right_width_0_height_0_subtile_0__pin_O_9_
*229 sc_in
*230 sc_out
*231 test_enable_bottom_in
*232 test_enable_bottom_out
*233 test_enable_left_out
*234 test_enable_right_in
*235 test_enable_top_in
*236 test_enable_top_out
*237 top_left_grid_right_width_0_height_0_subtile_0__pin_O_10_
*238 top_left_grid_right_width_0_height_0_subtile_0__pin_O_11_
*239 top_left_grid_right_width_0_height_0_subtile_0__pin_O_12_
*240 top_left_grid_right_width_0_height_0_subtile_0__pin_O_13_
*241 top_left_grid_right_width_0_height_0_subtile_0__pin_O_14_
*242 top_left_grid_right_width_0_height_0_subtile_0__pin_O_15_
*243 top_left_grid_right_width_0_height_0_subtile_0__pin_O_8_
*244 top_left_grid_right_width_0_height_0_subtile_0__pin_O_9_
*245 top_right_grid_left_width_0_height_0_subtile_0__pin_inpad_0_
*246 top_right_grid_left_width_0_height_0_subtile_1__pin_inpad_0_
*247 top_right_grid_left_width_0_height_0_subtile_2__pin_inpad_0_
*248 top_right_grid_left_width_0_height_0_subtile_3__pin_inpad_0_
*249 top_width_0_height_0_subtile_0__pin_O_0_
*250 top_width_0_height_0_subtile_0__pin_O_1_
*251 top_width_0_height_0_subtile_0__pin_O_2_
*252 top_width_0_height_0_subtile_0__pin_O_3_
*253 top_width_0_height_0_subtile_0__pin_O_4_
*254 top_width_0_height_0_subtile_0__pin_O_5_
*255 top_width_0_height_0_subtile_0__pin_O_6_
*256 top_width_0_height_0_subtile_0__pin_O_7_
*257 top_width_0_height_0_subtile_0__pin_cin_0_
*258 top_width_0_height_0_subtile_0__pin_reg_in_0_
*259 cbx_8__1_\.bottom_grid_top_width_0_height_0_subtile_0__pin_I0_0_
*260 cbx_8__1_\.bottom_grid_top_width_0_height_0_subtile_0__pin_I0_1_
*261 cbx_8__1_\.bottom_grid_top_width_0_height_0_subtile_0__pin_I0i_0_
*262 cbx_8__1_\.bottom_grid_top_width_0_height_0_subtile_0__pin_I0i_1_
*263 cbx_8__1_\.bottom_grid_top_width_0_height_0_subtile_0__pin_I1_0_
*264 cbx_8__1_\.bottom_grid_top_width_0_height_0_subtile_0__pin_I1_1_
*265 cbx_8__1_\.bottom_grid_top_width_0_height_0_subtile_0__pin_I1i_0_
*266 cbx_8__1_\.bottom_grid_top_width_0_height_0_subtile_0__pin_I1i_1_
*267 cbx_8__1_\.bottom_grid_top_width_0_height_0_subtile_0__pin_I2_0_
*268 cbx_8__1_\.bottom_grid_top_width_0_height_0_subtile_0__pin_I2_1_
*269 cbx_8__1_\.bottom_grid_top_width_0_height_0_subtile_0__pin_I2i_0_
*270 cbx_8__1_\.bottom_grid_top_width_0_height_0_subtile_0__pin_I2i_1_
*271 cbx_8__1_\.bottom_grid_top_width_0_height_0_subtile_0__pin_I3_0_
*272 cbx_8__1_\.bottom_grid_top_width_0_height_0_subtile_0__pin_I3_1_
*273 cbx_8__1_\.bottom_grid_top_width_0_height_0_subtile_0__pin_I3i_0_
*274 cbx_8__1_\.bottom_grid_top_width_0_height_0_subtile_0__pin_I3i_1_
*275 cbx_8__1_\.ccff_head
*276 cbx_8__1_\.mem_top_ipin_0\.ccff_tail
*277 cbx_8__1_\.mem_top_ipin_0\.mem_out\[0\]
*278 cbx_8__1_\.mem_top_ipin_0\.mem_out\[1\]
*279 cbx_8__1_\.mem_top_ipin_0\.mem_out\[2\]
*280 cbx_8__1_\.mem_top_ipin_1\.ccff_tail
*281 cbx_8__1_\.mem_top_ipin_1\.mem_out\[0\]
*282 cbx_8__1_\.mem_top_ipin_1\.mem_out\[1\]
*283 cbx_8__1_\.mem_top_ipin_1\.mem_out\[2\]
*284 cbx_8__1_\.mem_top_ipin_10\.ccff_head
*285 cbx_8__1_\.mem_top_ipin_10\.ccff_tail
*286 cbx_8__1_\.mem_top_ipin_10\.mem_out\[0\]
*287 cbx_8__1_\.mem_top_ipin_10\.mem_out\[1\]
*288 cbx_8__1_\.mem_top_ipin_10\.mem_out\[2\]
*289 cbx_8__1_\.mem_top_ipin_11\.ccff_tail
*290 cbx_8__1_\.mem_top_ipin_11\.mem_out\[0\]
*291 cbx_8__1_\.mem_top_ipin_11\.mem_out\[1\]
*292 cbx_8__1_\.mem_top_ipin_11\.mem_out\[2\]
*293 cbx_8__1_\.mem_top_ipin_12\.ccff_tail
*294 cbx_8__1_\.mem_top_ipin_12\.mem_out\[0\]
*295 cbx_8__1_\.mem_top_ipin_12\.mem_out\[1\]
*296 cbx_8__1_\.mem_top_ipin_12\.mem_out\[2\]
*297 cbx_8__1_\.mem_top_ipin_13\.ccff_tail
*298 cbx_8__1_\.mem_top_ipin_13\.mem_out\[0\]
*299 cbx_8__1_\.mem_top_ipin_13\.mem_out\[1\]
*300 cbx_8__1_\.mem_top_ipin_13\.mem_out\[2\]
*301 cbx_8__1_\.mem_top_ipin_14\.ccff_tail
*302 cbx_8__1_\.mem_top_ipin_14\.mem_out\[0\]
*303 cbx_8__1_\.mem_top_ipin_14\.mem_out\[1\]
*304 cbx_8__1_\.mem_top_ipin_14\.mem_out\[2\]
*305 cbx_8__1_\.mem_top_ipin_15\.mem_out\[0\]
*306 cbx_8__1_\.mem_top_ipin_15\.mem_out\[1\]
*307 cbx_8__1_\.mem_top_ipin_15\.mem_out\[2\]
*308 cbx_8__1_\.mem_top_ipin_2\.ccff_tail
*309 cbx_8__1_\.mem_top_ipin_2\.mem_out\[0\]
*310 cbx_8__1_\.mem_top_ipin_2\.mem_out\[1\]
*311 cbx_8__1_\.mem_top_ipin_2\.mem_out\[2\]
*312 cbx_8__1_\.mem_top_ipin_3\.ccff_tail
*313 cbx_8__1_\.mem_top_ipin_3\.mem_out\[0\]
*314 cbx_8__1_\.mem_top_ipin_3\.mem_out\[1\]
*315 cbx_8__1_\.mem_top_ipin_3\.mem_out\[2\]
*316 cbx_8__1_\.mem_top_ipin_4\.ccff_tail
*317 cbx_8__1_\.mem_top_ipin_4\.mem_out\[0\]
*318 cbx_8__1_\.mem_top_ipin_4\.mem_out\[1\]
*319 cbx_8__1_\.mem_top_ipin_4\.mem_out\[2\]
*320 cbx_8__1_\.mem_top_ipin_5\.ccff_tail
*321 cbx_8__1_\.mem_top_ipin_5\.mem_out\[0\]
*322 cbx_8__1_\.mem_top_ipin_5\.mem_out\[1\]
*323 cbx_8__1_\.mem_top_ipin_5\.mem_out\[2\]
*324 cbx_8__1_\.mem_top_ipin_6\.ccff_tail
*325 cbx_8__1_\.mem_top_ipin_6\.mem_out\[0\]
*326 cbx_8__1_\.mem_top_ipin_6\.mem_out\[1\]
*327 cbx_8__1_\.mem_top_ipin_6\.mem_out\[2\]
*328 cbx_8__1_\.mem_top_ipin_7\.ccff_tail
*329 cbx_8__1_\.mem_top_ipin_7\.mem_out\[0\]
*330 cbx_8__1_\.mem_top_ipin_7\.mem_out\[1\]
*331 cbx_8__1_\.mem_top_ipin_7\.mem_out\[2\]
*332 cbx_8__1_\.mem_top_ipin_8\.ccff_tail
*333 cbx_8__1_\.mem_top_ipin_8\.mem_out\[0\]
*334 cbx_8__1_\.mem_top_ipin_8\.mem_out\[1\]
*335 cbx_8__1_\.mem_top_ipin_8\.mem_out\[2\]
*336 cbx_8__1_\.mem_top_ipin_9\.mem_out\[0\]
*337 cbx_8__1_\.mem_top_ipin_9\.mem_out\[1\]
*338 cbx_8__1_\.mem_top_ipin_9\.mem_out\[2\]
*339 cbx_8__1_\.mux_top_ipin_0\.sky130_fd_sc_hd__mux2_1_0_X
*340 cbx_8__1_\.mux_top_ipin_0\.sky130_fd_sc_hd__mux2_1_10_X
*341 cbx_8__1_\.mux_top_ipin_0\.sky130_fd_sc_hd__mux2_1_11_X
*342 cbx_8__1_\.mux_top_ipin_0\.sky130_fd_sc_hd__mux2_1_1_X
*343 cbx_8__1_\.mux_top_ipin_0\.sky130_fd_sc_hd__mux2_1_2_X
*344 cbx_8__1_\.mux_top_ipin_0\.sky130_fd_sc_hd__mux2_1_3_X
*345 cbx_8__1_\.mux_top_ipin_0\.sky130_fd_sc_hd__mux2_1_4_X
*346 cbx_8__1_\.mux_top_ipin_0\.sky130_fd_sc_hd__mux2_1_5_X
*347 cbx_8__1_\.mux_top_ipin_0\.sky130_fd_sc_hd__mux2_1_6_X
*348 cbx_8__1_\.mux_top_ipin_0\.sky130_fd_sc_hd__mux2_1_7_X
*349 cbx_8__1_\.mux_top_ipin_0\.sky130_fd_sc_hd__mux2_1_8_X
*350 cbx_8__1_\.mux_top_ipin_0\.sky130_fd_sc_hd__mux2_1_9_X
*351 cbx_8__1_\.mux_top_ipin_1\.sky130_fd_sc_hd__mux2_1_0_X
*352 cbx_8__1_\.mux_top_ipin_1\.sky130_fd_sc_hd__mux2_1_1_X
*353 cbx_8__1_\.mux_top_ipin_1\.sky130_fd_sc_hd__mux2_1_2_X
*354 cbx_8__1_\.mux_top_ipin_1\.sky130_fd_sc_hd__mux2_1_3_X
*355 cbx_8__1_\.mux_top_ipin_1\.sky130_fd_sc_hd__mux2_1_4_X
*356 cbx_8__1_\.mux_top_ipin_1\.sky130_fd_sc_hd__mux2_1_5_X
*357 cbx_8__1_\.mux_top_ipin_1\.sky130_fd_sc_hd__mux2_1_6_X
*358 cbx_8__1_\.mux_top_ipin_1\.sky130_fd_sc_hd__mux2_1_7_X
*359 cbx_8__1_\.mux_top_ipin_1\.sky130_fd_sc_hd__mux2_1_8_X
*360 cbx_8__1_\.mux_top_ipin_1\.sky130_fd_sc_hd__mux2_1_9_X
*361 cbx_8__1_\.mux_top_ipin_10\.sky130_fd_sc_hd__mux2_1_0_X
*362 cbx_8__1_\.mux_top_ipin_10\.sky130_fd_sc_hd__mux2_1_10_X
*363 cbx_8__1_\.mux_top_ipin_10\.sky130_fd_sc_hd__mux2_1_11_X
*364 cbx_8__1_\.mux_top_ipin_10\.sky130_fd_sc_hd__mux2_1_1_X
*365 cbx_8__1_\.mux_top_ipin_10\.sky130_fd_sc_hd__mux2_1_2_X
*366 cbx_8__1_\.mux_top_ipin_10\.sky130_fd_sc_hd__mux2_1_3_X
*367 cbx_8__1_\.mux_top_ipin_10\.sky130_fd_sc_hd__mux2_1_4_X
*368 cbx_8__1_\.mux_top_ipin_10\.sky130_fd_sc_hd__mux2_1_5_X
*369 cbx_8__1_\.mux_top_ipin_10\.sky130_fd_sc_hd__mux2_1_6_X
*370 cbx_8__1_\.mux_top_ipin_10\.sky130_fd_sc_hd__mux2_1_7_X
*371 cbx_8__1_\.mux_top_ipin_10\.sky130_fd_sc_hd__mux2_1_8_X
*372 cbx_8__1_\.mux_top_ipin_10\.sky130_fd_sc_hd__mux2_1_9_X
*373 cbx_8__1_\.mux_top_ipin_11\.sky130_fd_sc_hd__mux2_1_0_X
*374 cbx_8__1_\.mux_top_ipin_11\.sky130_fd_sc_hd__mux2_1_1_X
*375 cbx_8__1_\.mux_top_ipin_11\.sky130_fd_sc_hd__mux2_1_2_X
*376 cbx_8__1_\.mux_top_ipin_11\.sky130_fd_sc_hd__mux2_1_3_X
*377 cbx_8__1_\.mux_top_ipin_11\.sky130_fd_sc_hd__mux2_1_4_X
*378 cbx_8__1_\.mux_top_ipin_11\.sky130_fd_sc_hd__mux2_1_5_X
*379 cbx_8__1_\.mux_top_ipin_11\.sky130_fd_sc_hd__mux2_1_6_X
*380 cbx_8__1_\.mux_top_ipin_11\.sky130_fd_sc_hd__mux2_1_7_X
*381 cbx_8__1_\.mux_top_ipin_11\.sky130_fd_sc_hd__mux2_1_8_X
*382 cbx_8__1_\.mux_top_ipin_11\.sky130_fd_sc_hd__mux2_1_9_X
*383 cbx_8__1_\.mux_top_ipin_12\.sky130_fd_sc_hd__mux2_1_0_X
*384 cbx_8__1_\.mux_top_ipin_12\.sky130_fd_sc_hd__mux2_1_10_X
*385 cbx_8__1_\.mux_top_ipin_12\.sky130_fd_sc_hd__mux2_1_11_X
*386 cbx_8__1_\.mux_top_ipin_12\.sky130_fd_sc_hd__mux2_1_1_X
*387 cbx_8__1_\.mux_top_ipin_12\.sky130_fd_sc_hd__mux2_1_2_X
*388 cbx_8__1_\.mux_top_ipin_12\.sky130_fd_sc_hd__mux2_1_3_X
*389 cbx_8__1_\.mux_top_ipin_12\.sky130_fd_sc_hd__mux2_1_4_X
*390 cbx_8__1_\.mux_top_ipin_12\.sky130_fd_sc_hd__mux2_1_5_X
*391 cbx_8__1_\.mux_top_ipin_12\.sky130_fd_sc_hd__mux2_1_6_X
*392 cbx_8__1_\.mux_top_ipin_12\.sky130_fd_sc_hd__mux2_1_7_X
*393 cbx_8__1_\.mux_top_ipin_12\.sky130_fd_sc_hd__mux2_1_8_X
*394 cbx_8__1_\.mux_top_ipin_12\.sky130_fd_sc_hd__mux2_1_9_X
*395 cbx_8__1_\.mux_top_ipin_13\.sky130_fd_sc_hd__mux2_1_0_X
*396 cbx_8__1_\.mux_top_ipin_13\.sky130_fd_sc_hd__mux2_1_1_X
*397 cbx_8__1_\.mux_top_ipin_13\.sky130_fd_sc_hd__mux2_1_2_X
*398 cbx_8__1_\.mux_top_ipin_13\.sky130_fd_sc_hd__mux2_1_3_X
*399 cbx_8__1_\.mux_top_ipin_13\.sky130_fd_sc_hd__mux2_1_4_X
*400 cbx_8__1_\.mux_top_ipin_13\.sky130_fd_sc_hd__mux2_1_5_X
*401 cbx_8__1_\.mux_top_ipin_13\.sky130_fd_sc_hd__mux2_1_6_X
*402 cbx_8__1_\.mux_top_ipin_13\.sky130_fd_sc_hd__mux2_1_7_X
*403 cbx_8__1_\.mux_top_ipin_13\.sky130_fd_sc_hd__mux2_1_8_X
*404 cbx_8__1_\.mux_top_ipin_13\.sky130_fd_sc_hd__mux2_1_9_X
*405 cbx_8__1_\.mux_top_ipin_14\.sky130_fd_sc_hd__mux2_1_0_X
*406 cbx_8__1_\.mux_top_ipin_14\.sky130_fd_sc_hd__mux2_1_10_X
*407 cbx_8__1_\.mux_top_ipin_14\.sky130_fd_sc_hd__mux2_1_11_X
*408 cbx_8__1_\.mux_top_ipin_14\.sky130_fd_sc_hd__mux2_1_1_X
*409 cbx_8__1_\.mux_top_ipin_14\.sky130_fd_sc_hd__mux2_1_2_X
*410 cbx_8__1_\.mux_top_ipin_14\.sky130_fd_sc_hd__mux2_1_3_X
*411 cbx_8__1_\.mux_top_ipin_14\.sky130_fd_sc_hd__mux2_1_4_X
*412 cbx_8__1_\.mux_top_ipin_14\.sky130_fd_sc_hd__mux2_1_5_X
*413 cbx_8__1_\.mux_top_ipin_14\.sky130_fd_sc_hd__mux2_1_6_X
*414 cbx_8__1_\.mux_top_ipin_14\.sky130_fd_sc_hd__mux2_1_7_X
*415 cbx_8__1_\.mux_top_ipin_14\.sky130_fd_sc_hd__mux2_1_8_X
*416 cbx_8__1_\.mux_top_ipin_14\.sky130_fd_sc_hd__mux2_1_9_X
*417 cbx_8__1_\.mux_top_ipin_15\.sky130_fd_sc_hd__mux2_1_0_X
*418 cbx_8__1_\.mux_top_ipin_15\.sky130_fd_sc_hd__mux2_1_1_X
*419 cbx_8__1_\.mux_top_ipin_15\.sky130_fd_sc_hd__mux2_1_2_X
*420 cbx_8__1_\.mux_top_ipin_15\.sky130_fd_sc_hd__mux2_1_3_X
*421 cbx_8__1_\.mux_top_ipin_15\.sky130_fd_sc_hd__mux2_1_4_X
*422 cbx_8__1_\.mux_top_ipin_15\.sky130_fd_sc_hd__mux2_1_5_X
*423 cbx_8__1_\.mux_top_ipin_15\.sky130_fd_sc_hd__mux2_1_6_X
*424 cbx_8__1_\.mux_top_ipin_15\.sky130_fd_sc_hd__mux2_1_7_X
*425 cbx_8__1_\.mux_top_ipin_15\.sky130_fd_sc_hd__mux2_1_8_X
*426 cbx_8__1_\.mux_top_ipin_15\.sky130_fd_sc_hd__mux2_1_9_X
*427 cbx_8__1_\.mux_top_ipin_2\.sky130_fd_sc_hd__mux2_1_0_X
*428 cbx_8__1_\.mux_top_ipin_2\.sky130_fd_sc_hd__mux2_1_10_X
*429 cbx_8__1_\.mux_top_ipin_2\.sky130_fd_sc_hd__mux2_1_11_X
*430 cbx_8__1_\.mux_top_ipin_2\.sky130_fd_sc_hd__mux2_1_1_X
*431 cbx_8__1_\.mux_top_ipin_2\.sky130_fd_sc_hd__mux2_1_2_X
*432 cbx_8__1_\.mux_top_ipin_2\.sky130_fd_sc_hd__mux2_1_3_X
*433 cbx_8__1_\.mux_top_ipin_2\.sky130_fd_sc_hd__mux2_1_4_X
*434 cbx_8__1_\.mux_top_ipin_2\.sky130_fd_sc_hd__mux2_1_5_X
*435 cbx_8__1_\.mux_top_ipin_2\.sky130_fd_sc_hd__mux2_1_6_X
*436 cbx_8__1_\.mux_top_ipin_2\.sky130_fd_sc_hd__mux2_1_7_X
*437 cbx_8__1_\.mux_top_ipin_2\.sky130_fd_sc_hd__mux2_1_8_X
*438 cbx_8__1_\.mux_top_ipin_2\.sky130_fd_sc_hd__mux2_1_9_X
*439 cbx_8__1_\.mux_top_ipin_3\.sky130_fd_sc_hd__mux2_1_0_X
*440 cbx_8__1_\.mux_top_ipin_3\.sky130_fd_sc_hd__mux2_1_1_X
*441 cbx_8__1_\.mux_top_ipin_3\.sky130_fd_sc_hd__mux2_1_2_X
*442 cbx_8__1_\.mux_top_ipin_3\.sky130_fd_sc_hd__mux2_1_3_X
*443 cbx_8__1_\.mux_top_ipin_3\.sky130_fd_sc_hd__mux2_1_4_X
*444 cbx_8__1_\.mux_top_ipin_3\.sky130_fd_sc_hd__mux2_1_5_X
*445 cbx_8__1_\.mux_top_ipin_3\.sky130_fd_sc_hd__mux2_1_6_X
*446 cbx_8__1_\.mux_top_ipin_3\.sky130_fd_sc_hd__mux2_1_7_X
*447 cbx_8__1_\.mux_top_ipin_3\.sky130_fd_sc_hd__mux2_1_8_X
*448 cbx_8__1_\.mux_top_ipin_3\.sky130_fd_sc_hd__mux2_1_9_X
*449 cbx_8__1_\.mux_top_ipin_4\.sky130_fd_sc_hd__mux2_1_0_X
*450 cbx_8__1_\.mux_top_ipin_4\.sky130_fd_sc_hd__mux2_1_10_X
*451 cbx_8__1_\.mux_top_ipin_4\.sky130_fd_sc_hd__mux2_1_11_X
*452 cbx_8__1_\.mux_top_ipin_4\.sky130_fd_sc_hd__mux2_1_1_X
*453 cbx_8__1_\.mux_top_ipin_4\.sky130_fd_sc_hd__mux2_1_2_X
*454 cbx_8__1_\.mux_top_ipin_4\.sky130_fd_sc_hd__mux2_1_3_X
*455 cbx_8__1_\.mux_top_ipin_4\.sky130_fd_sc_hd__mux2_1_4_X
*456 cbx_8__1_\.mux_top_ipin_4\.sky130_fd_sc_hd__mux2_1_5_X
*457 cbx_8__1_\.mux_top_ipin_4\.sky130_fd_sc_hd__mux2_1_6_X
*458 cbx_8__1_\.mux_top_ipin_4\.sky130_fd_sc_hd__mux2_1_7_X
*459 cbx_8__1_\.mux_top_ipin_4\.sky130_fd_sc_hd__mux2_1_8_X
*460 cbx_8__1_\.mux_top_ipin_4\.sky130_fd_sc_hd__mux2_1_9_X
*461 cbx_8__1_\.mux_top_ipin_5\.sky130_fd_sc_hd__mux2_1_0_X
*462 cbx_8__1_\.mux_top_ipin_5\.sky130_fd_sc_hd__mux2_1_1_X
*463 cbx_8__1_\.mux_top_ipin_5\.sky130_fd_sc_hd__mux2_1_2_X
*464 cbx_8__1_\.mux_top_ipin_5\.sky130_fd_sc_hd__mux2_1_3_X
*465 cbx_8__1_\.mux_top_ipin_5\.sky130_fd_sc_hd__mux2_1_4_X
*466 cbx_8__1_\.mux_top_ipin_5\.sky130_fd_sc_hd__mux2_1_5_X
*467 cbx_8__1_\.mux_top_ipin_5\.sky130_fd_sc_hd__mux2_1_6_X
*468 cbx_8__1_\.mux_top_ipin_5\.sky130_fd_sc_hd__mux2_1_7_X
*469 cbx_8__1_\.mux_top_ipin_5\.sky130_fd_sc_hd__mux2_1_8_X
*470 cbx_8__1_\.mux_top_ipin_5\.sky130_fd_sc_hd__mux2_1_9_X
*471 cbx_8__1_\.mux_top_ipin_6\.sky130_fd_sc_hd__mux2_1_0_X
*472 cbx_8__1_\.mux_top_ipin_6\.sky130_fd_sc_hd__mux2_1_10_X
*473 cbx_8__1_\.mux_top_ipin_6\.sky130_fd_sc_hd__mux2_1_11_X
*474 cbx_8__1_\.mux_top_ipin_6\.sky130_fd_sc_hd__mux2_1_1_X
*475 cbx_8__1_\.mux_top_ipin_6\.sky130_fd_sc_hd__mux2_1_2_X
*476 cbx_8__1_\.mux_top_ipin_6\.sky130_fd_sc_hd__mux2_1_3_X
*477 cbx_8__1_\.mux_top_ipin_6\.sky130_fd_sc_hd__mux2_1_4_X
*478 cbx_8__1_\.mux_top_ipin_6\.sky130_fd_sc_hd__mux2_1_5_X
*479 cbx_8__1_\.mux_top_ipin_6\.sky130_fd_sc_hd__mux2_1_6_X
*480 cbx_8__1_\.mux_top_ipin_6\.sky130_fd_sc_hd__mux2_1_7_X
*481 cbx_8__1_\.mux_top_ipin_6\.sky130_fd_sc_hd__mux2_1_8_X
*482 cbx_8__1_\.mux_top_ipin_6\.sky130_fd_sc_hd__mux2_1_9_X
*483 cbx_8__1_\.mux_top_ipin_7\.sky130_fd_sc_hd__mux2_1_0_X
*484 cbx_8__1_\.mux_top_ipin_7\.sky130_fd_sc_hd__mux2_1_1_X
*485 cbx_8__1_\.mux_top_ipin_7\.sky130_fd_sc_hd__mux2_1_2_X
*486 cbx_8__1_\.mux_top_ipin_7\.sky130_fd_sc_hd__mux2_1_3_X
*487 cbx_8__1_\.mux_top_ipin_7\.sky130_fd_sc_hd__mux2_1_4_X
*488 cbx_8__1_\.mux_top_ipin_7\.sky130_fd_sc_hd__mux2_1_5_X
*489 cbx_8__1_\.mux_top_ipin_7\.sky130_fd_sc_hd__mux2_1_6_X
*490 cbx_8__1_\.mux_top_ipin_7\.sky130_fd_sc_hd__mux2_1_7_X
*491 cbx_8__1_\.mux_top_ipin_7\.sky130_fd_sc_hd__mux2_1_8_X
*492 cbx_8__1_\.mux_top_ipin_7\.sky130_fd_sc_hd__mux2_1_9_X
*493 cbx_8__1_\.mux_top_ipin_8\.sky130_fd_sc_hd__mux2_1_0_X
*494 cbx_8__1_\.mux_top_ipin_8\.sky130_fd_sc_hd__mux2_1_10_X
*495 cbx_8__1_\.mux_top_ipin_8\.sky130_fd_sc_hd__mux2_1_11_X
*496 cbx_8__1_\.mux_top_ipin_8\.sky130_fd_sc_hd__mux2_1_1_X
*497 cbx_8__1_\.mux_top_ipin_8\.sky130_fd_sc_hd__mux2_1_2_X
*498 cbx_8__1_\.mux_top_ipin_8\.sky130_fd_sc_hd__mux2_1_3_X
*499 cbx_8__1_\.mux_top_ipin_8\.sky130_fd_sc_hd__mux2_1_4_X
*500 cbx_8__1_\.mux_top_ipin_8\.sky130_fd_sc_hd__mux2_1_5_X
*501 cbx_8__1_\.mux_top_ipin_8\.sky130_fd_sc_hd__mux2_1_6_X
*502 cbx_8__1_\.mux_top_ipin_8\.sky130_fd_sc_hd__mux2_1_7_X
*503 cbx_8__1_\.mux_top_ipin_8\.sky130_fd_sc_hd__mux2_1_8_X
*504 cbx_8__1_\.mux_top_ipin_8\.sky130_fd_sc_hd__mux2_1_9_X
*505 cbx_8__1_\.mux_top_ipin_9\.sky130_fd_sc_hd__mux2_1_0_X
*506 cbx_8__1_\.mux_top_ipin_9\.sky130_fd_sc_hd__mux2_1_1_X
*507 cbx_8__1_\.mux_top_ipin_9\.sky130_fd_sc_hd__mux2_1_2_X
*508 cbx_8__1_\.mux_top_ipin_9\.sky130_fd_sc_hd__mux2_1_3_X
*509 cbx_8__1_\.mux_top_ipin_9\.sky130_fd_sc_hd__mux2_1_4_X
*510 cbx_8__1_\.mux_top_ipin_9\.sky130_fd_sc_hd__mux2_1_5_X
*511 cbx_8__1_\.mux_top_ipin_9\.sky130_fd_sc_hd__mux2_1_6_X
*512 cbx_8__1_\.mux_top_ipin_9\.sky130_fd_sc_hd__mux2_1_7_X
*513 cbx_8__1_\.mux_top_ipin_9\.sky130_fd_sc_hd__mux2_1_8_X
*514 cbx_8__1_\.mux_top_ipin_9\.sky130_fd_sc_hd__mux2_1_9_X
*515 cby_8__1_\.cby_8__8_\.ccff_tail
*516 cby_8__1_\.cby_8__8_\.left_grid_right_width_0_height_0_subtile_0__pin_I4_0_
*517 cby_8__1_\.cby_8__8_\.left_grid_right_width_0_height_0_subtile_0__pin_I4_1_
*518 cby_8__1_\.cby_8__8_\.left_grid_right_width_0_height_0_subtile_0__pin_I4i_0_
*519 cby_8__1_\.cby_8__8_\.left_grid_right_width_0_height_0_subtile_0__pin_I4i_1_
*520 cby_8__1_\.cby_8__8_\.left_grid_right_width_0_height_0_subtile_0__pin_I5_0_
*521 cby_8__1_\.cby_8__8_\.left_grid_right_width_0_height_0_subtile_0__pin_I5_1_
*522 cby_8__1_\.cby_8__8_\.left_grid_right_width_0_height_0_subtile_0__pin_I5i_0_
*523 cby_8__1_\.cby_8__8_\.left_grid_right_width_0_height_0_subtile_0__pin_I5i_1_
*524 cby_8__1_\.cby_8__8_\.left_grid_right_width_0_height_0_subtile_0__pin_I6_0_
*525 cby_8__1_\.cby_8__8_\.left_grid_right_width_0_height_0_subtile_0__pin_I6_1_
*526 cby_8__1_\.cby_8__8_\.left_grid_right_width_0_height_0_subtile_0__pin_I6i_0_
*527 cby_8__1_\.cby_8__8_\.left_grid_right_width_0_height_0_subtile_0__pin_I6i_1_
*528 cby_8__1_\.cby_8__8_\.left_grid_right_width_0_height_0_subtile_0__pin_I7_0_
*529 cby_8__1_\.cby_8__8_\.left_grid_right_width_0_height_0_subtile_0__pin_I7_1_
*530 cby_8__1_\.cby_8__8_\.left_grid_right_width_0_height_0_subtile_0__pin_I7i_0_
*531 cby_8__1_\.cby_8__8_\.left_grid_right_width_0_height_0_subtile_0__pin_I7i_1_
*532 cby_8__1_\.cby_8__8_\.mem_left_ipin_0\.ccff_tail
*533 cby_8__1_\.cby_8__8_\.mem_left_ipin_0\.mem_out\[0\]
*534 cby_8__1_\.cby_8__8_\.mem_left_ipin_0\.mem_out\[1\]
*535 cby_8__1_\.cby_8__8_\.mem_left_ipin_0\.mem_out\[2\]
*536 cby_8__1_\.cby_8__8_\.mem_left_ipin_1\.ccff_tail
*537 cby_8__1_\.cby_8__8_\.mem_left_ipin_1\.mem_out\[0\]
*538 cby_8__1_\.cby_8__8_\.mem_left_ipin_1\.mem_out\[1\]
*539 cby_8__1_\.cby_8__8_\.mem_left_ipin_1\.mem_out\[2\]
*540 cby_8__1_\.cby_8__8_\.mem_left_ipin_2\.ccff_tail
*541 cby_8__1_\.cby_8__8_\.mem_left_ipin_2\.mem_out\[0\]
*542 cby_8__1_\.cby_8__8_\.mem_left_ipin_2\.mem_out\[1\]
*543 cby_8__1_\.cby_8__8_\.mem_left_ipin_2\.mem_out\[2\]
*544 cby_8__1_\.cby_8__8_\.mem_left_ipin_3\.ccff_tail
*545 cby_8__1_\.cby_8__8_\.mem_left_ipin_3\.mem_out\[0\]
*546 cby_8__1_\.cby_8__8_\.mem_left_ipin_3\.mem_out\[1\]
*547 cby_8__1_\.cby_8__8_\.mem_left_ipin_3\.mem_out\[2\]
*548 cby_8__1_\.cby_8__8_\.mem_right_ipin_0\.ccff_tail
*549 cby_8__1_\.cby_8__8_\.mem_right_ipin_0\.mem_out\[0\]
*550 cby_8__1_\.cby_8__8_\.mem_right_ipin_0\.mem_out\[1\]
*551 cby_8__1_\.cby_8__8_\.mem_right_ipin_0\.mem_out\[2\]
*552 cby_8__1_\.cby_8__8_\.mem_right_ipin_1\.ccff_tail
*553 cby_8__1_\.cby_8__8_\.mem_right_ipin_1\.mem_out\[0\]
*554 cby_8__1_\.cby_8__8_\.mem_right_ipin_1\.mem_out\[1\]
*555 cby_8__1_\.cby_8__8_\.mem_right_ipin_1\.mem_out\[2\]
*556 cby_8__1_\.cby_8__8_\.mem_right_ipin_10\.ccff_head
*557 cby_8__1_\.cby_8__8_\.mem_right_ipin_10\.ccff_tail
*558 cby_8__1_\.cby_8__8_\.mem_right_ipin_10\.mem_out\[0\]
*559 cby_8__1_\.cby_8__8_\.mem_right_ipin_10\.mem_out\[1\]
*560 cby_8__1_\.cby_8__8_\.mem_right_ipin_10\.mem_out\[2\]
*561 cby_8__1_\.cby_8__8_\.mem_right_ipin_11\.ccff_tail
*562 cby_8__1_\.cby_8__8_\.mem_right_ipin_11\.mem_out\[0\]
*563 cby_8__1_\.cby_8__8_\.mem_right_ipin_11\.mem_out\[1\]
*564 cby_8__1_\.cby_8__8_\.mem_right_ipin_11\.mem_out\[2\]
*565 cby_8__1_\.cby_8__8_\.mem_right_ipin_12\.ccff_tail
*566 cby_8__1_\.cby_8__8_\.mem_right_ipin_12\.mem_out\[0\]
*567 cby_8__1_\.cby_8__8_\.mem_right_ipin_12\.mem_out\[1\]
*568 cby_8__1_\.cby_8__8_\.mem_right_ipin_12\.mem_out\[2\]
*569 cby_8__1_\.cby_8__8_\.mem_right_ipin_13\.ccff_tail
*570 cby_8__1_\.cby_8__8_\.mem_right_ipin_13\.mem_out\[0\]
*571 cby_8__1_\.cby_8__8_\.mem_right_ipin_13\.mem_out\[1\]
*572 cby_8__1_\.cby_8__8_\.mem_right_ipin_13\.mem_out\[2\]
*573 cby_8__1_\.cby_8__8_\.mem_right_ipin_14\.ccff_tail
*574 cby_8__1_\.cby_8__8_\.mem_right_ipin_14\.mem_out\[0\]
*575 cby_8__1_\.cby_8__8_\.mem_right_ipin_14\.mem_out\[1\]
*576 cby_8__1_\.cby_8__8_\.mem_right_ipin_14\.mem_out\[2\]
*577 cby_8__1_\.cby_8__8_\.mem_right_ipin_15\.mem_out\[0\]
*578 cby_8__1_\.cby_8__8_\.mem_right_ipin_15\.mem_out\[1\]
*579 cby_8__1_\.cby_8__8_\.mem_right_ipin_15\.mem_out\[2\]
*580 cby_8__1_\.cby_8__8_\.mem_right_ipin_2\.ccff_tail
*581 cby_8__1_\.cby_8__8_\.mem_right_ipin_2\.mem_out\[0\]
*582 cby_8__1_\.cby_8__8_\.mem_right_ipin_2\.mem_out\[1\]
*583 cby_8__1_\.cby_8__8_\.mem_right_ipin_2\.mem_out\[2\]
*584 cby_8__1_\.cby_8__8_\.mem_right_ipin_3\.ccff_tail
*585 cby_8__1_\.cby_8__8_\.mem_right_ipin_3\.mem_out\[0\]
*586 cby_8__1_\.cby_8__8_\.mem_right_ipin_3\.mem_out\[1\]
*587 cby_8__1_\.cby_8__8_\.mem_right_ipin_3\.mem_out\[2\]
*588 cby_8__1_\.cby_8__8_\.mem_right_ipin_4\.ccff_tail
*589 cby_8__1_\.cby_8__8_\.mem_right_ipin_4\.mem_out\[0\]
*590 cby_8__1_\.cby_8__8_\.mem_right_ipin_4\.mem_out\[1\]
*591 cby_8__1_\.cby_8__8_\.mem_right_ipin_4\.mem_out\[2\]
*592 cby_8__1_\.cby_8__8_\.mem_right_ipin_5\.ccff_tail
*593 cby_8__1_\.cby_8__8_\.mem_right_ipin_5\.mem_out\[0\]
*594 cby_8__1_\.cby_8__8_\.mem_right_ipin_5\.mem_out\[1\]
*595 cby_8__1_\.cby_8__8_\.mem_right_ipin_5\.mem_out\[2\]
*596 cby_8__1_\.cby_8__8_\.mem_right_ipin_6\.ccff_tail
*597 cby_8__1_\.cby_8__8_\.mem_right_ipin_6\.mem_out\[0\]
*598 cby_8__1_\.cby_8__8_\.mem_right_ipin_6\.mem_out\[1\]
*599 cby_8__1_\.cby_8__8_\.mem_right_ipin_6\.mem_out\[2\]
*600 cby_8__1_\.cby_8__8_\.mem_right_ipin_7\.ccff_tail
*601 cby_8__1_\.cby_8__8_\.mem_right_ipin_7\.mem_out\[0\]
*602 cby_8__1_\.cby_8__8_\.mem_right_ipin_7\.mem_out\[1\]
*603 cby_8__1_\.cby_8__8_\.mem_right_ipin_7\.mem_out\[2\]
*604 cby_8__1_\.cby_8__8_\.mem_right_ipin_8\.ccff_tail
*605 cby_8__1_\.cby_8__8_\.mem_right_ipin_8\.mem_out\[0\]
*606 cby_8__1_\.cby_8__8_\.mem_right_ipin_8\.mem_out\[1\]
*607 cby_8__1_\.cby_8__8_\.mem_right_ipin_8\.mem_out\[2\]
*608 cby_8__1_\.cby_8__8_\.mem_right_ipin_9\.mem_out\[0\]
*609 cby_8__1_\.cby_8__8_\.mem_right_ipin_9\.mem_out\[1\]
*610 cby_8__1_\.cby_8__8_\.mem_right_ipin_9\.mem_out\[2\]
*611 cby_8__1_\.cby_8__8_\.mux_left_ipin_0\.out
*612 cby_8__1_\.cby_8__8_\.mux_left_ipin_0\.sky130_fd_sc_hd__mux2_1_0_X
*613 cby_8__1_\.cby_8__8_\.mux_left_ipin_0\.sky130_fd_sc_hd__mux2_1_10_X
*614 cby_8__1_\.cby_8__8_\.mux_left_ipin_0\.sky130_fd_sc_hd__mux2_1_11_X
*615 cby_8__1_\.cby_8__8_\.mux_left_ipin_0\.sky130_fd_sc_hd__mux2_1_1_X
*616 cby_8__1_\.cby_8__8_\.mux_left_ipin_0\.sky130_fd_sc_hd__mux2_1_2_X
*617 cby_8__1_\.cby_8__8_\.mux_left_ipin_0\.sky130_fd_sc_hd__mux2_1_3_X
*618 cby_8__1_\.cby_8__8_\.mux_left_ipin_0\.sky130_fd_sc_hd__mux2_1_4_X
*619 cby_8__1_\.cby_8__8_\.mux_left_ipin_0\.sky130_fd_sc_hd__mux2_1_5_X
*620 cby_8__1_\.cby_8__8_\.mux_left_ipin_0\.sky130_fd_sc_hd__mux2_1_6_X
*621 cby_8__1_\.cby_8__8_\.mux_left_ipin_0\.sky130_fd_sc_hd__mux2_1_7_X
*622 cby_8__1_\.cby_8__8_\.mux_left_ipin_0\.sky130_fd_sc_hd__mux2_1_8_X
*623 cby_8__1_\.cby_8__8_\.mux_left_ipin_0\.sky130_fd_sc_hd__mux2_1_9_X
*624 cby_8__1_\.cby_8__8_\.mux_left_ipin_1\.out
*625 cby_8__1_\.cby_8__8_\.mux_left_ipin_1\.sky130_fd_sc_hd__mux2_1_0_X
*626 cby_8__1_\.cby_8__8_\.mux_left_ipin_1\.sky130_fd_sc_hd__mux2_1_10_X
*627 cby_8__1_\.cby_8__8_\.mux_left_ipin_1\.sky130_fd_sc_hd__mux2_1_11_X
*628 cby_8__1_\.cby_8__8_\.mux_left_ipin_1\.sky130_fd_sc_hd__mux2_1_1_X
*629 cby_8__1_\.cby_8__8_\.mux_left_ipin_1\.sky130_fd_sc_hd__mux2_1_2_X
*630 cby_8__1_\.cby_8__8_\.mux_left_ipin_1\.sky130_fd_sc_hd__mux2_1_3_X
*631 cby_8__1_\.cby_8__8_\.mux_left_ipin_1\.sky130_fd_sc_hd__mux2_1_4_X
*632 cby_8__1_\.cby_8__8_\.mux_left_ipin_1\.sky130_fd_sc_hd__mux2_1_5_X
*633 cby_8__1_\.cby_8__8_\.mux_left_ipin_1\.sky130_fd_sc_hd__mux2_1_6_X
*634 cby_8__1_\.cby_8__8_\.mux_left_ipin_1\.sky130_fd_sc_hd__mux2_1_7_X
*635 cby_8__1_\.cby_8__8_\.mux_left_ipin_1\.sky130_fd_sc_hd__mux2_1_8_X
*636 cby_8__1_\.cby_8__8_\.mux_left_ipin_1\.sky130_fd_sc_hd__mux2_1_9_X
*637 cby_8__1_\.cby_8__8_\.mux_left_ipin_2\.out
*638 cby_8__1_\.cby_8__8_\.mux_left_ipin_2\.sky130_fd_sc_hd__mux2_1_0_X
*639 cby_8__1_\.cby_8__8_\.mux_left_ipin_2\.sky130_fd_sc_hd__mux2_1_10_X
*640 cby_8__1_\.cby_8__8_\.mux_left_ipin_2\.sky130_fd_sc_hd__mux2_1_11_X