*SPEF "ieee 1481-1999"
*DESIGN "bottom_right_tile"
*DATE "11:11:11 Fri 11 11, 1111"
*VENDOR "OpenRCX"
*PROGRAM "Parallel Extraction"
*VERSION "1.0"
*DESIGN_FLOW "NAME_SCOPE LOCAL" "PIN_CAP NONE"
*DIVIDER /
*DELIMITER :
*BUS_DELIMITER []
*T_UNIT 1 NS
*C_UNIT 1 PF
*R_UNIT 1 OHM
*L_UNIT 1 HENRY

*NAME_MAP
*3 ccff_head
*4 ccff_head_1
*5 ccff_tail
*6 ccff_tail_0
*7 chanx_left_in[0]
*8 chanx_left_in[10]
*9 chanx_left_in[11]
*10 chanx_left_in[12]
*11 chanx_left_in[13]
*12 chanx_left_in[14]
*13 chanx_left_in[15]
*14 chanx_left_in[16]
*15 chanx_left_in[17]
*16 chanx_left_in[18]
*17 chanx_left_in[19]
*18 chanx_left_in[1]
*19 chanx_left_in[20]
*20 chanx_left_in[21]
*21 chanx_left_in[22]
*22 chanx_left_in[23]
*23 chanx_left_in[24]
*24 chanx_left_in[25]
*25 chanx_left_in[26]
*26 chanx_left_in[27]
*27 chanx_left_in[28]
*28 chanx_left_in[29]
*29 chanx_left_in[2]
*30 chanx_left_in[3]
*31 chanx_left_in[4]
*32 chanx_left_in[5]
*33 chanx_left_in[6]
*34 chanx_left_in[7]
*35 chanx_left_in[8]
*36 chanx_left_in[9]
*37 chanx_left_out[0]
*38 chanx_left_out[10]
*39 chanx_left_out[11]
*40 chanx_left_out[12]
*41 chanx_left_out[13]
*42 chanx_left_out[14]
*43 chanx_left_out[15]
*44 chanx_left_out[16]
*45 chanx_left_out[17]
*46 chanx_left_out[18]
*47 chanx_left_out[19]
*48 chanx_left_out[1]
*49 chanx_left_out[20]
*50 chanx_left_out[21]
*51 chanx_left_out[22]
*52 chanx_left_out[23]
*53 chanx_left_out[24]
*54 chanx_left_out[25]
*55 chanx_left_out[26]
*56 chanx_left_out[27]
*57 chanx_left_out[28]
*58 chanx_left_out[29]
*59 chanx_left_out[2]
*60 chanx_left_out[3]
*61 chanx_left_out[4]
*62 chanx_left_out[5]
*63 chanx_left_out[6]
*64 chanx_left_out[7]
*65 chanx_left_out[8]
*66 chanx_left_out[9]
*67 chany_top_in[0]
*68 chany_top_in[10]
*69 chany_top_in[11]
*70 chany_top_in[12]
*71 chany_top_in[13]
*72 chany_top_in[14]
*73 chany_top_in[15]
*74 chany_top_in[16]
*75 chany_top_in[17]
*76 chany_top_in[18]
*77 chany_top_in[19]
*78 chany_top_in[1]
*79 chany_top_in[20]
*80 chany_top_in[21]
*81 chany_top_in[22]
*82 chany_top_in[23]
*83 chany_top_in[24]
*84 chany_top_in[25]
*85 chany_top_in[26]
*86 chany_top_in[27]
*87 chany_top_in[28]
*88 chany_top_in[29]
*89 chany_top_in[2]
*90 chany_top_in[3]
*91 chany_top_in[4]
*92 chany_top_in[5]
*93 chany_top_in[6]
*94 chany_top_in[7]
*95 chany_top_in[8]
*96 chany_top_in[9]
*97 chany_top_out[0]
*98 chany_top_out[10]
*99 chany_top_out[11]
*100 chany_top_out[12]
*101 chany_top_out[13]
*102 chany_top_out[14]
*103 chany_top_out[15]
*104 chany_top_out[16]
*105 chany_top_out[17]
*106 chany_top_out[18]
*107 chany_top_out[19]
*108 chany_top_out[1]
*109 chany_top_out[20]
*110 chany_top_out[21]
*111 chany_top_out[22]
*112 chany_top_out[23]
*113 chany_top_out[24]
*114 chany_top_out[25]
*115 chany_top_out[26]
*116 chany_top_out[27]
*117 chany_top_out[28]
*118 chany_top_out[29]
*119 chany_top_out[2]
*120 chany_top_out[3]
*121 chany_top_out[4]
*122 chany_top_out[5]
*123 chany_top_out[6]
*124 chany_top_out[7]
*125 chany_top_out[8]
*126 chany_top_out[9]
*127 gfpga_pad_io_soc_dir[0]
*128 gfpga_pad_io_soc_dir[1]
*129 gfpga_pad_io_soc_dir[2]
*130 gfpga_pad_io_soc_dir[3]
*131 gfpga_pad_io_soc_in[0]
*132 gfpga_pad_io_soc_in[1]
*133 gfpga_pad_io_soc_in[2]
*134 gfpga_pad_io_soc_in[3]
*135 gfpga_pad_io_soc_out[0]
*136 gfpga_pad_io_soc_out[1]
*137 gfpga_pad_io_soc_out[2]
*138 gfpga_pad_io_soc_out[3]
*139 isol_n
*140 prog_clk
*141 prog_reset
*142 reset
*143 test_enable
*144 top_left_grid_right_width_0_height_0_subtile_0__pin_O_10_
*145 top_left_grid_right_width_0_height_0_subtile_0__pin_O_11_
*146 top_left_grid_right_width_0_height_0_subtile_0__pin_O_12_
*147 top_left_grid_right_width_0_height_0_subtile_0__pin_O_13_
*148 top_left_grid_right_width_0_height_0_subtile_0__pin_O_14_
*149 top_left_grid_right_width_0_height_0_subtile_0__pin_O_15_
*150 top_left_grid_right_width_0_height_0_subtile_0__pin_O_8_
*151 top_left_grid_right_width_0_height_0_subtile_0__pin_O_9_
*152 top_right_grid_left_width_0_height_0_subtile_0__pin_inpad_0_
*153 top_right_grid_left_width_0_height_0_subtile_1__pin_inpad_0_
*154 top_right_grid_left_width_0_height_0_subtile_2__pin_inpad_0_
*155 top_right_grid_left_width_0_height_0_subtile_3__pin_inpad_0_
*156 top_width_0_height_0_subtile_0__pin_inpad_0_
*157 top_width_0_height_0_subtile_1__pin_inpad_0_
*158 top_width_0_height_0_subtile_2__pin_inpad_0_
*159 top_width_0_height_0_subtile_3__pin_inpad_0_
*160 cbx_8__0_\.bottom_grid_top_width_0_height_0_subtile_0__pin_outpad_0_
*161 cbx_8__0_\.bottom_grid_top_width_0_height_0_subtile_1__pin_outpad_0_
*162 cbx_8__0_\.bottom_grid_top_width_0_height_0_subtile_2__pin_outpad_0_
*163 cbx_8__0_\.bottom_grid_top_width_0_height_0_subtile_3__pin_outpad_0_
*164 cbx_8__0_\.cbx_8__0_\.ccff_head
*165 cbx_8__0_\.cbx_8__0_\.mem_top_ipin_0\.ccff_tail
*166 cbx_8__0_\.cbx_8__0_\.mem_top_ipin_0\.mem_out\[0\]
*167 cbx_8__0_\.cbx_8__0_\.mem_top_ipin_0\.mem_out\[1\]
*168 cbx_8__0_\.cbx_8__0_\.mem_top_ipin_0\.mem_out\[2\]
*169 cbx_8__0_\.cbx_8__0_\.mem_top_ipin_1\.ccff_tail
*170 cbx_8__0_\.cbx_8__0_\.mem_top_ipin_1\.mem_out\[0\]
*171 cbx_8__0_\.cbx_8__0_\.mem_top_ipin_1\.mem_out\[1\]
*172 cbx_8__0_\.cbx_8__0_\.mem_top_ipin_1\.mem_out\[2\]
*173 cbx_8__0_\.cbx_8__0_\.mem_top_ipin_2\.ccff_tail
*174 cbx_8__0_\.cbx_8__0_\.mem_top_ipin_2\.mem_out\[0\]
*175 cbx_8__0_\.cbx_8__0_\.mem_top_ipin_2\.mem_out\[1\]
*176 cbx_8__0_\.cbx_8__0_\.mem_top_ipin_2\.mem_out\[2\]
*177 cbx_8__0_\.cbx_8__0_\.mem_top_ipin_3\.mem_out\[0\]
*178 cbx_8__0_\.cbx_8__0_\.mem_top_ipin_3\.mem_out\[1\]
*179 cbx_8__0_\.cbx_8__0_\.mem_top_ipin_3\.mem_out\[2\]
*180 cbx_8__0_\.cbx_8__0_\.mux_top_ipin_0\.sky130_fd_sc_hd__mux2_1_0_X
*181 cbx_8__0_\.cbx_8__0_\.mux_top_ipin_0\.sky130_fd_sc_hd__mux2_1_10_X
*182 cbx_8__0_\.cbx_8__0_\.mux_top_ipin_0\.sky130_fd_sc_hd__mux2_1_11_X
*183 cbx_8__0_\.cbx_8__0_\.mux_top_ipin_0\.sky130_fd_sc_hd__mux2_1_1_X
*184 cbx_8__0_\.cbx_8__0_\.mux_top_ipin_0\.sky130_fd_sc_hd__mux2_1_2_X
*185 cbx_8__0_\.cbx_8__0_\.mux_top_ipin_0\.sky130_fd_sc_hd__mux2_1_3_X
*186 cbx_8__0_\.cbx_8__0_\.mux_top_ipin_0\.sky130_fd_sc_hd__mux2_1_4_X
*187 cbx_8__0_\.cbx_8__0_\.mux_top_ipin_0\.sky130_fd_sc_hd__mux2_1_5_X
*188 cbx_8__0_\.cbx_8__0_\.mux_top_ipin_0\.sky130_fd_sc_hd__mux2_1_6_X
*189 cbx_8__0_\.cbx_8__0_\.mux_top_ipin_0\.sky130_fd_sc_hd__mux2_1_7_X
*190 cbx_8__0_\.cbx_8__0_\.mux_top_ipin_0\.sky130_fd_sc_hd__mux2_1_8_X
*191 cbx_8__0_\.cbx_8__0_\.mux_top_ipin_0\.sky130_fd_sc_hd__mux2_1_9_X
*192 cbx_8__0_\.cbx_8__0_\.mux_top_ipin_1\.sky130_fd_sc_hd__mux2_1_0_X
*193 cbx_8__0_\.cbx_8__0_\.mux_top_ipin_1\.sky130_fd_sc_hd__mux2_1_10_X
*194 cbx_8__0_\.cbx_8__0_\.mux_top_ipin_1\.sky130_fd_sc_hd__mux2_1_11_X
*195 cbx_8__0_\.cbx_8__0_\.mux_top_ipin_1\.sky130_fd_sc_hd__mux2_1_1_X
*196 cbx_8__0_\.cbx_8__0_\.mux_top_ipin_1\.sky130_fd_sc_hd__mux2_1_2_X
*197 cbx_8__0_\.cbx_8__0_\.mux_top_ipin_1\.sky130_fd_sc_hd__mux2_1_3_X
*198 cbx_8__0_\.cbx_8__0_\.mux_top_ipin_1\.sky130_fd_sc_hd__mux2_1_4_X
*199 cbx_8__0_\.cbx_8__0_\.mux_top_ipin_1\.sky130_fd_sc_hd__mux2_1_5_X
*200 cbx_8__0_\.cbx_8__0_\.mux_top_ipin_1\.sky130_fd_sc_hd__mux2_1_6_X
*201 cbx_8__0_\.cbx_8__0_\.mux_top_ipin_1\.sky130_fd_sc_hd__mux2_1_7_X
*202 cbx_8__0_\.cbx_8__0_\.mux_top_ipin_1\.sky130_fd_sc_hd__mux2_1_8_X
*203 cbx_8__0_\.cbx_8__0_\.mux_top_ipin_1\.sky130_fd_sc_hd__mux2_1_9_X
*204 cbx_8__0_\.cbx_8__0_\.mux_top_ipin_2\.sky130_fd_sc_hd__mux2_1_0_X
*205 cbx_8__0_\.cbx_8__0_\.mux_top_ipin_2\.sky130_fd_sc_hd__mux2_1_10_X
*206 cbx_8__0_\.cbx_8__0_\.mux_top_ipin_2\.sky130_fd_sc_hd__mux2_1_11_X
*207 cbx_8__0_\.cbx_8__0_\.mux_top_ipin_2\.sky130_fd_sc_hd__mux2_1_1_X
*208 cbx_8__0_\.cbx_8__0_\.mux_top_ipin_2\.sky130_fd_sc_hd__mux2_1_2_X
*209 cbx_8__0_\.cbx_8__0_\.mux_top_ipin_2\.sky130_fd_sc_hd__mux2_1_3_X
*210 cbx_8__0_\.cbx_8__0_\.mux_top_ipin_2\.sky130_fd_sc_hd__mux2_1_4_X
*211 cbx_8__0_\.cbx_8__0_\.mux_top_ipin_2\.sky130_fd_sc_hd__mux2_1_5_X
*212 cbx_8__0_\.cbx_8__0_\.mux_top_ipin_2\.sky130_fd_sc_hd__mux2_1_6_X
*213 cbx_8__0_\.cbx_8__0_\.mux_top_ipin_2\.sky130_fd_sc_hd__mux2_1_7_X
*214 cbx_8__0_\.cbx_8__0_\.mux_top_ipin_2\.sky130_fd_sc_hd__mux2_1_8_X
*215 cbx_8__0_\.cbx_8__0_\.mux_top_ipin_2\.sky130_fd_sc_hd__mux2_1_9_X
*216 cbx_8__0_\.cbx_8__0_\.mux_top_ipin_3\.sky130_fd_sc_hd__mux2_1_0_X
*217 cbx_8__0_\.cbx_8__0_\.mux_top_ipin_3\.sky130_fd_sc_hd__mux2_1_10_X
*218 cbx_8__0_\.cbx_8__0_\.mux_top_ipin_3\.sky130_fd_sc_hd__mux2_1_11_X
*219 cbx_8__0_\.cbx_8__0_\.mux_top_ipin_3\.sky130_fd_sc_hd__mux2_1_1_X
*220 cbx_8__0_\.cbx_8__0_\.mux_top_ipin_3\.sky130_fd_sc_hd__mux2_1_2_X
*221 cbx_8__0_\.cbx_8__0_\.mux_top_ipin_3\.sky130_fd_sc_hd__mux2_1_3_X
*222 cbx_8__0_\.cbx_8__0_\.mux_top_ipin_3\.sky130_fd_sc_hd__mux2_1_4_X
*223 cbx_8__0_\.cbx_8__0_\.mux_top_ipin_3\.sky130_fd_sc_hd__mux2_1_5_X
*224 cbx_8__0_\.cbx_8__0_\.mux_top_ipin_3\.sky130_fd_sc_hd__mux2_1_6_X
*225 cbx_8__0_\.cbx_8__0_\.mux_top_ipin_3\.sky130_fd_sc_hd__mux2_1_7_X
*226 cbx_8__0_\.cbx_8__0_\.mux_top_ipin_3\.sky130_fd_sc_hd__mux2_1_8_X
*227 cbx_8__0_\.cbx_8__0_\.mux_top_ipin_3\.sky130_fd_sc_hd__mux2_1_9_X
*228 cbx_8__0_\.grid_io_bottom_bottom_8__0_\.logical_tile_io_mode_io__0\.ccff_tail
*229 cbx_8__0_\.grid_io_bottom_bottom_8__0_\.logical_tile_io_mode_io__0\.gfpga_pad_io_soc_dir
*230 cbx_8__0_\.grid_io_bottom_bottom_8__0_\.logical_tile_io_mode_io__0\.logical_tile_io_mode_physical__iopad_0\.io_0_\.SOC_DIR_N
*231 cbx_8__0_\.grid_io_bottom_bottom_8__0_\.logical_tile_io_mode_io__1\.ccff_tail
*232 cbx_8__0_\.grid_io_bottom_bottom_8__0_\.logical_tile_io_mode_io__1\.gfpga_pad_io_soc_dir
*233 cbx_8__0_\.grid_io_bottom_bottom_8__0_\.logical_tile_io_mode_io__1\.logical_tile_io_mode_physical__iopad_0\.io_0_\.SOC_DIR_N
*234 cbx_8__0_\.grid_io_bottom_bottom_8__0_\.logical_tile_io_mode_io__2\.ccff_tail
*235 cbx_8__0_\.grid_io_bottom_bottom_8__0_\.logical_tile_io_mode_io__2\.gfpga_pad_io_soc_dir
*236 cbx_8__0_\.grid_io_bottom_bottom_8__0_\.logical_tile_io_mode_io__2\.logical_tile_io_mode_physical__iopad_0\.io_0_\.SOC_DIR_N
*237 cbx_8__0_\.grid_io_bottom_bottom_8__0_\.logical_tile_io_mode_io__3\.gfpga_pad_io_soc_dir
*238 cbx_8__0_\.grid_io_bottom_bottom_8__0_\.logical_tile_io_mode_io__3\.logical_tile_io_mode_physical__iopad_0\.io_0_\.SOC_DIR_N
*239 clknet_0_prog_clk
*240 clknet_4_0_0_prog_clk
*241 clknet_4_10_0_prog_clk
*242 clknet_4_11_0_prog_clk
*243 clknet_4_12_0_prog_clk
*244 clknet_4_13_0_prog_clk
*245 clknet_4_14_0_prog_clk
*246 clknet_4_15_0_prog_clk
*247 clknet_4_1_0_prog_clk
*248 clknet_4_2_0_prog_clk
*249 clknet_4_3_0_prog_clk
*250 clknet_4_4_0_prog_clk
*251 clknet_4_5_0_prog_clk
*252 clknet_4_6_0_prog_clk
*253 clknet_4_7_0_prog_clk
*254 clknet_4_8_0_prog_clk
*255 clknet_4_9_0_prog_clk
*256 net1
*257 net10
*258 net100
*259 net101
*260 net102
*261 net103
*262 net104
*263 net105
*264 net106
*265 net107
*266 net108
*267 net109
*268 net11
*269 net110
*270 net111
*271 net112
*272 net113
*273 net114
*274 net115
*275 net116
*276 net117
*277 net118
*278 net119
*279 net12
*280 net120
*281 net121
*282 net122
*283 net123
*284 net124
*285 net125
*286 net126
*287 net127
*288 net128
*289 net129
*290 net13
*291 net130
*292 net131
*293 net132
*294 net133
*295 net134
*296 net135
*297 net136
*298 net137
*299 net138
*300 net139
*301 net14
*302 net140
*303 net141
*304 net142
*305 net143
*306 net144
*307 net145
*308 net146
*309 net147
*310 net148
*311 net149
*312 net15
*313 net150
*314 net151
*315 net152
*316 net153
*317 net154
*318 net155
*319 net156
*320 net157
*321 net158
*322 net159
*323 net16
*324 net160
*325 net161
*326 net162
*327 net163
*328 net164
*329 net165
*330 net166
*331 net167
*332 net168
*333 net169
*334 net17
*335 net170
*336 net171
*337 net172
*338 net173
*339 net174
*340 net175
*341 net176
*342 net177
*343 net178
*344 net179
*345 net18
*346 net180
*347 net181
*348 net182
*349 net183
*350 net184
*351 net185
*352 net186
*353 net187
*354 net188
*355 net189
*356 net19
*357 net190
*358 net191
*359 net192
*360 net193
*361 net194
*362 net195
*363 net196
*364 net197
*365 net198
*366 net199
*367 net2
*368 net20
*369 net200
*370 net201
*371 net202
*372 net203
*373 net204
*374 net205
*375 net206
*376 net207
*377 net208
*378 net209
*379 net21
*380 net210
*381 net211
*382 net212
*383 net213
*384 net214
*385 net215
*386 net216
*387 net217
*388 net218
*389 net219
*390 net22
*391 net220
*392 net221
*393 net222
*394 net223
*395 net224
*396 net225
*397 net226
*398 net227
*399 net228
*400 net229
*401 net23
*402 net230
*403 net231
*404 net232
*405 net233
*406 net234
*407 net235
*408 net236
*409 net237
*410 net238
*411 net239
*412 net24
*413 net240
*414 net241
*415 net242
*416 net243
*417 net244
*418 net245
*419 net246
*420 net247
*421 net248
*422 net249
*423 net25
*424 net250
*425 net251
*426 net252
*427 net253
*428 net254
*429 net255
*430 net256
*431 net257
*432 net258
*433 net259
*434 net26
*435 net260
*436 net261
*437 net262
*438 net263
*439 net264
*440 net265
*441 net266
*442 net267
*443 net268
*444 net269
*445 net27
*446 net270
*447 net271
*448 net272
*449 net273
*450 net274
*451 net275
*452 net276
*453 net277
*454 net278
*455 net279
*456 net28
*457 net280
*458 net281
*459 net282
*460 net283
*461 net284
*462 net285
*463 net286
*464 net287
*465 net288
*466 net289
*467 net29
*468 net3
*469 net30
*470 net31
*471 net32
*472 net33
*473 net34
*474 net35
*475 net36
*476 net37
*477 net38
*478 net39
*479 net4
*480 net40
*481 net41
*482 net42
*483 net43
*484 net44
*485 net45
*486 net46
*487 net47
*488 net48
*489 net49
*490 net5
*491 net50
*492 net51
*493 net52
*494 net53
*495 net54
*496 net55
*497 net56
*498 net57
*499 net58
*500 net59
*501 net6
*502 net60
*503 net61
*504 net62
*505 net63
*506 net64
*507 net65
*508 net66
*509 net67
*510 net68
*511 net69
*512 net7
*513 net70
*514 net71
*515 net72
*516 net73
*517 net74
*518 net75
*519 net76
*520 net77
*521 net78
*522 net79
*523 net8
*524 net80
*525 net81
*526 net82
*527 net83
*528 net84
*529 net85
*530 net86
*531 net87
*532 net88
*533 net89
*534 net9
*535 net90
*536 net91
*537 net92
*538 net93
*539 net94
*540 net95
*541 net96
*542 net97
*543 net98
*544 net99
*545 sb_8__0_\.mem_left_track_1\.ccff_head
*546 sb_8__0_\.mem_left_track_1\.ccff_tail
*547 sb_8__0_\.mem_left_track_1\.mem_out\[0\]
*548 sb_8__0_\.mem_left_track_11\.ccff_head
*549 sb_8__0_\.mem_left_track_11\.ccff_tail
*550 sb_8__0_\.mem_left_track_11\.mem_out\[0\]
*551 sb_8__0_\.mem_left_track_13\.ccff_tail
*552 sb_8__0_\.mem_left_track_13\.mem_out\[0\]
*553 sb_8__0_\.mem_left_track_15\.ccff_tail
*554 sb_8__0_\.mem_left_track_15\.mem_out\[0\]
*555 sb_8__0_\.mem_left_track_17\.ccff_tail
*556 sb_8__0_\.mem_left_track_17\.mem_out\[0\]
*557 sb_8__0_\.mem_left_track_19\.ccff_tail
*558 sb_8__0_\.mem_left_track_19\.mem_out\[0\]
*559 sb_8__0_\.mem_left_track_29\.ccff_tail
*560 sb_8__0_\.mem_left_track_29\.mem_out\[0\]
*561 sb_8__0_\.mem_left_track_3\.ccff_tail
*562 sb_8__0_\.mem_left_track_3\.mem_out\[0\]
*563 sb_8__0_\.mem_left_track_31\.ccff_tail
*564 sb_8__0_\.mem_left_track_31\.mem_out\[0\]
*565 sb_8__0_\.mem_left_track_33\.ccff_tail
*566 sb_8__0_\.mem_left_track_33\.mem_out\[0\]
*567 sb_8__0_\.mem_left_track_35\.ccff_tail
*568 sb_8__0_\.mem_left_track_35\.mem_out\[0\]
*569 sb_8__0_\.mem_left_track_45\.ccff_tail
*570 sb_8__0_\.mem_left_track_45\.mem_out\[0\]
*571 sb_8__0_\.mem_left_track_47\.ccff_tail
*572 sb_8__0_\.mem_left_track_47\.mem_out\[0\]
*573 sb_8__0_\.mem_left_track_49\.ccff_tail
*574 sb_8__0_\.mem_left_track_49\.mem_out\[0\]
*575 sb_8__0_\.mem_left_track_5\.ccff_tail
*576 sb_8__0_\.mem_left_track_5\.mem_out\[0\]
*577 sb_8__0_\.mem_left_track_51\.mem_out\[0\]
*578 sb_8__0_\.mem_left_track_7\.ccff_tail
*579 sb_8__0_\.mem_left_track_7\.mem_out\[0\]
*580 sb_8__0_\.mem_left_track_9\.mem_out\[0\]
*581 sb_8__0_\.mem_top_track_0\.ccff_tail
*582 sb_8__0_\.mem_top_track_0\.mem_out\[0\]
*583 sb_8__0_\.mem_top_track_0\.mem_out\[1\]
*584 sb_8__0_\.mem_top_track_10\.ccff_head
*585 sb_8__0_\.mem_top_track_10\.ccff_tail
*586 sb_8__0_\.mem_top_track_10\.mem_out\[0\]
*587 sb_8__0_\.mem_top_track_10\.mem_out\[1\]
*588 sb_8__0_\.mem_top_track_12\.ccff_tail
*589 sb_8__0_\.mem_top_track_12\.mem_out\[0\]
*590 sb_8__0_\.mem_top_track_14\.ccff_tail
*591 sb_8__0_\.mem_top_track_14\.mem_out\[0\]
*592 sb_8__0_\.mem_top_track_16\.ccff_tail
*593 sb_8__0_\.mem_top_track_16\.mem_out\[0\]
*594 sb_8__0_\.mem_top_track_18\.ccff_tail
*595 sb_8__0_\.mem_top_track_18\.mem_out\[0\]
*596 sb_8__0_\.mem_top_track_2\.ccff_tail
*597 sb_8__0_\.mem_top_track_2\.mem_out\[0\]
*598 sb_8__0_\.mem_top_track_2\.mem_out\[1\]
*599 sb_8__0_\.mem_top_track_20\.ccff_tail
*600 sb_8__0_\.mem_top_track_20\.mem_out\[0\]
*601 sb_8__0_\.mem_top_track_22\.ccff_tail
*602 sb_8__0_\.mem_top_track_22\.mem_out\[0\]
*603 sb_8__0_\.mem_top_track_24\.ccff_tail
*604 sb_8__0_\.mem_top_track_24\.mem_out\[0\]
*605 sb_8__0_\.mem_top_track_26\.ccff_tail
*606 sb_8__0_\.mem_top_track_26\.mem_out\[0\]
*607 sb_8__0_\.mem_top_track_28\.ccff_tail
*608 sb_8__0_\.mem_top_track_28\.mem_out\[0\]
*609 sb_8__0_\.mem_top_track_30\.ccff_tail
*610 sb_8__0_\.mem_top_track_30\.mem_out\[0\]
*611 sb_8__0_\.mem_top_track_32\.ccff_tail
*612 sb_8__0_\.mem_top_track_32\.mem_out\[0\]
*613 sb_8__0_\.mem_top_track_34\.ccff_tail
*614 sb_8__0_\.mem_top_track_34\.mem_out\[0\]
*615 sb_8__0_\.mem_top_track_36\.ccff_tail
*616 sb_8__0_\.mem_top_track_36\.mem_out\[0\]
*617 sb_8__0_\.mem_top_track_38\.ccff_tail
*618 sb_8__0_\.mem_top_track_38\.mem_out\[0\]
*619 sb_8__0_\.mem_top_track_4\.ccff_tail
*620 sb_8__0_\.mem_top_track_4\.mem_out\[0\]
*621 sb_8__0_\.mem_top_track_4\.mem_out\[1\]
*622 sb_8__0_\.mem_top_track_40\.ccff_tail
*623 sb_8__0_\.mem_top_track_40\.mem_out\[0\]
*624 sb_8__0_\.mem_top_track_42\.ccff_tail
*625 sb_8__0_\.mem_top_track_42\.mem_out\[0\]
*626 sb_8__0_\.mem_top_track_44\.ccff_tail
*627 sb_8__0_\.mem_top_track_44\.mem_out\[0\]
*628 sb_8__0_\.mem_top_track_46\.ccff_tail
*629 sb_8__0_\.mem_top_track_46\.mem_out\[0\]
*630 sb_8__0_\.mem_top_track_48\.ccff_tail
*631 sb_8__0_\.mem_top_track_48\.mem_out\[0\]
*632 sb_8__0_\.mem_top_track_50\.mem_out\[0\]
*633 sb_8__0_\.mem_top_track_6\.ccff_tail
*634 sb_8__0_\.mem_top_track_6\.mem_out\[0\]
*635 sb_8__0_\.mem_top_track_6\.mem_out\[1\]
*636 sb_8__0_\.mem_top_track_8\.mem_out\[0\]
*637 sb_8__0_\.mem_top_track_8\.mem_out\[1\]
*638 sb_8__0_\.mux_left_track_1\.out
*639 sb_8__0_\.mux_left_track_1\.sky130_fd_sc_hd__mux2_1_0_X
*640 sb_8__0_\.mux_left_track_1\.sky130_fd_sc_hd__mux2_1_1_X
*641 sb_8__0_\.mux_left_track_1\.sky130_fd_sc_hd__mux2_1_2_X
*642 sb_8__0_\.mux_left_track_11\.out
*643 sb_8__0_\.mux_left_track_11\.sky130_fd_sc_hd__mux2_1_0_X
*644 sb_8__0_\.mux_left_track_11\.sky130_fd_sc_hd__mux2_1_1_X
*645 sb_8__0_\.mux_left_track_13\.out
*646 sb_8__0_\.mux_left_track_13\.sky130_fd_sc_hd__mux2_1_0_X
*647 sb_8__0_\.mux_left_track_13\.sky130_fd_sc_hd__mux2_1_1_X
*648 sb_8__0_\.mux_left_track_15\.out
*649 sb_8__0_\.mux_left_track_15\.sky130_fd_sc_hd__mux2_1_0_X
*650 sb_8__0_\.mux_left_track_15\.sky130_fd_sc_hd__mux2_1_1_X
*651 sb_8__0_\.mux_left_track_17\.out
*652 sb_8__0_\.mux_left_track_17\.sky130_fd_sc_hd__mux2_1_0_X
*653 sb_8__0_\.mux_left_track_17\.sky130_fd_sc_hd__mux2_1_1_X
*654 sb_8__0_\.mux_left_track_19\.out
*655 sb_8__0_\.mux_left_track_19\.sky130_fd_sc_hd__mux2_1_0_X
*656 sb_8__0_\.mux_left_track_19\.sky130_fd_sc_hd__mux2_1_1_X
*657 sb_8__0_\.mux_left_track_29\.out
*658 sb_8__0_\.mux_left_track_29\.sky130_fd_sc_hd__mux2_1_0_X
*659 sb_8__0_\.mux_left_track_29\.sky130_fd_sc_hd__mux2_1_1_X
*660 sb_8__0_\.mux_left_track_3\.out
*661 sb_8__0_\.mux_left_track_3\.sky130_fd_sc_hd__mux2_1_0_X
*662 sb_8__0_\.mux_left_track_3\.sky130_fd_sc_hd__mux2_1_1_X
*663 sb_8__0_\.mux_left_track_31\.out
*664 sb_8__0_\.mux_left_track_31\.sky130_fd_sc_hd__mux2_1_0_X
*665 sb_8__0_\.mux_left_track_31\.sky130_fd_sc_hd__mux2_1_1_X
*666 sb_8__0_\.mux_left_track_33\.out
*667 sb_8__0_\.mux_left_track_33\.sky130_fd_sc_hd__mux2_1_0_X
*668 sb_8__0_\.mux_left_track_33\.sky130_fd_sc_hd__mux2_1_1_X
*669 sb_8__0_\.mux_left_track_35\.out
*670 sb_8__0_\.mux_left_track_35\.sky130_fd_sc_hd__mux2_1_0_X
*671 sb_8__0_\.mux_left_track_35\.sky130_fd_sc_hd__mux2_1_1_X
*672 sb_8__0_\.mux_left_track_45\.out
*673 sb_8__0_\.mux_left_track_45\.sky130_fd_sc_hd__mux2_1_0_X
*674 sb_8__0_\.mux_left_track_45\.sky130_fd_sc_hd__mux2_1_1_X
*675 sb_8__0_\.mux_left_track_47\.out
*676 sb_8__0_\.mux_left_track_47\.sky130_fd_sc_hd__mux2_1_0_X
*677 sb_8__0_\.mux_left_track_47\.sky130_fd_sc_hd__mux2_1_1_X
*678 sb_8__0_\.mux_left_track_49\.out
*679 sb_8__0_\.mux_left_track_49\.sky130_fd_sc_hd__mux2_1_0_X
*680 sb_8__0_\.mux_left_track_49\.sky130_fd_sc_hd__mux2_1_1_X
*681 sb_8__0_\.mux_left_track_5\.out
*682 sb_8__0_\.mux_left_track_5\.sky130_fd_sc_hd__mux2_1_0_X
*683 sb_8__0_\.mux_left_track_5\.sky130_fd_sc_hd__mux2_1_1_X
*684 sb_8__0_\.mux_left_track_51\.out
*685 sb_8__0_\.mux_left_track_51\.sky130_fd_sc_hd__mux2_1_0_X
*686 sb_8__0_\.mux_left_track_51\.sky130_fd_sc_hd__mux2_1_1_X
*687 sb_8__0_\.mux_left_track_7\.out
*688 sb_8__0_\.mux_left_track_7\.sky130_fd_sc_hd__mux2_1_0_X
*689 sb_8__0_\.mux_left_track_7\.sky130_fd_sc_hd__mux2_1_1_X
*690 sb_8__0_\.mux_left_track_7\.sky130_fd_sc_hd__mux2_1_2_X
*691 sb_8__0_\.mux_left_track_9\.out
*692 sb_8__0_\.mux_left_track_9\.sky130_fd_sc_hd__mux2_1_0_X
*693 sb_8__0_\.mux_left_track_9\.sky130_fd_sc_hd__mux2_1_1_X
*694 sb_8__0_\.mux_top_track_0\.out
*695 sb_8__0_\.mux_top_track_0\.sky130_fd_sc_hd__mux2_1_0_X
*696 sb_8__0_\.mux_top_track_0\.sky130_fd_sc_hd__mux2_1_1_X
*697 sb_8__0_\.mux_top_track_0\.sky130_fd_sc_hd__mux2_1_2_X
*698 sb_8__0_\.mux_top_track_0\.sky130_fd_sc_hd__mux2_1_3_X
*699 sb_8__0_\.mux_top_track_0\.sky130_fd_sc_hd__mux2_1_4_X
*700 sb_8__0_\.mux_top_track_10\.out
*701 sb_8__0_\.mux_top_track_10\.sky130_fd_sc_hd__mux2_1_0_X
*702 sb_8__0_\.mux_top_track_10\.sky130_fd_sc_hd__mux2_1_1_X
*703 sb_8__0_\.mux_top_track_10\.sky130_fd_sc_hd__mux2_1_2_X
*704 sb_8__0_\.mux_top_track_10\.sky130_fd_sc_hd__mux2_1_3_X
*705 sb_8__0_\.mux_top_track_10\.sky130_fd_sc_hd__mux2_1_4_X
*706 sb_8__0_\.mux_top_track_12\.out
*707 sb_8__0_\.mux_top_track_12\.sky130_fd_sc_hd__mux2_1_0_X
*708 sb_8__0_\.mux_top_track_12\.sky130_fd_sc_hd__mux2_1_1_X
*709 sb_8__0_\.mux_top_track_12\.sky130_fd_sc_hd__mux2_1_2_X
*710 sb_8__0_\.mux_top_track_14\.out
*711 sb_8__0_\.mux_top_track_14\.sky130_fd_sc_hd__mux2_1_0_X
*712 sb_8__0_\.mux_top_track_14\.sky130_fd_sc_hd__mux2_1_1_X
*713 sb_8__0_\.mux_top_track_14\.sky130_fd_sc_hd__mux2_1_2_X
*714 sb_8__0_\.mux_top_track_16\.out
*715 sb_8__0_\.mux_top_track_16\.sky130_fd_sc_hd__mux2_1_0_X
*716 sb_8__0_\.mux_top_track_16\.sky130_fd_sc_hd__mux2_1_1_X
*717 sb_8__0_\.mux_top_track_16\.sky130_fd_sc_hd__mux2_1_2_X
*718 sb_8__0_\.mux_top_track_18\.out
*719 sb_8__0_\.mux_top_track_18\.sky130_fd_sc_hd__mux2_1_0_X
*720 sb_8__0_\.mux_top_track_18\.sky130_fd_sc_hd__mux2_1_1_X
*721 sb_8__0_\.mux_top_track_18\.sky130_fd_sc_hd__mux2_1_2_X
*722 sb_8__0_\.mux_top_track_2\.out
*723 sb_8__0_\.mux_top_track_2\.sky130_fd_sc_hd__mux2_1_0_X
*724 sb_8__0_\.mux_top_track_2\.sky130_fd_sc_hd__mux2_1_1_X
*725 sb_8__0_\.mux_top_track_2\.sky130_fd_sc_hd__mux2_1_2_X
*726 sb_8__0_\.mux_top_track_2\.sky130_fd_sc_hd__mux2_1_3_X
*727 sb_8__0_\.mux_top_track_2\.sky130_fd_sc_hd__mux2_1_4_X
*728 sb_8__0_\.mux_top_track_20\.out
*729 sb_8__0_\.mux_top_track_20\.sky130_fd_sc_hd__mux2_1_0_X
*730 sb_8__0_\.mux_top_track_20\.sky130_fd_sc_hd__mux2_1_1_X
*731 sb_8__0_\.mux_top_track_22\.out
*732 sb_8__0_\.mux_top_track_22\.sky130_fd_sc_hd__mux2_1_0_X
*733 sb_8__0_\.mux_top_track_22\.sky130_fd_sc_hd__mux2_1_1_X
*734 sb_8__0_\.mux_top_track_24\.out
*735 sb_8__0_\.mux_top_track_24\.sky130_fd_sc_hd__mux2_1_0_X
*736 sb_8__0_\.mux_top_track_24\.sky130_fd_sc_hd__mux2_1_1_X
*737 sb_8__0_\.mux_top_track_26\.out
*738 sb_8__0_\.mux_top_track_26\.sky130_fd_sc_hd__mux2_1_0_X
*739 sb_8__0_\.mux_top_track_26\.sky130_fd_sc_hd__mux2_1_1_X
*740 sb_8__0_\.mux_top_track_28\.out
*741 sb_8__0_\.mux_top_track_28\.sky130_fd_sc_hd__mux2_1_0_X
*742 sb_8__0_\.mux_top_track_28\.sky130_fd_sc_hd__mux2_1_1_X
*743 sb_8__0_\.mux_top_track_30\.out
*744 sb_8__0_\.mux_top_track_30\.sky130_fd_sc_hd__mux2_1_0_X
*745 sb_8__0_\.mux_top_track_30\.sky130_fd_sc_hd__mux2_1_1_X
*746 sb_8__0_\.mux_top_track_32\.out
*747 sb_8__0_\.mux_top_track_32\.sky130_fd_sc_hd__mux2_1_0_X
*748 sb_8__0_\.mux_top_track_32\.sky130_fd_sc_hd__mux2_1_1_X
*749 sb_8__0_\.mux_top_track_34\.out
*750 sb_8__0_\.mux_top_track_34\.sky130_fd_sc_hd__mux2_1_0_X
*751 sb_8__0_\.mux_top_track_34\.sky130_fd_sc_hd__mux2_1_1_X
*752 sb_8__0_\.mux_top_track_36\.out
*753 sb_8__0_\.mux_top_track_36\.sky130_fd_sc_hd__mux2_1_0_X
*754 sb_8__0_\.mux_top_track_36\.sky130_fd_sc_hd__mux2_1_1_X
*755 sb_8__0_\.mux_top_track_38\.out
*756 sb_8__0_\.mux_top_track_38\.sky130_fd_sc_hd__mux2_1_0_X
*757 sb_8__0_\.mux_top_track_38\.sky130_fd_sc_hd__mux2_1_1_X
*758 sb_8__0_\.mux_top_track_4\.out
*759 sb_8__0_\.mux_top_track_4\.sky130_fd_sc_hd__mux2_1_0_X
*760 sb_8__0_\.mux_top_track_4\.sky130_fd_sc_hd__mux2_1_1_X
*761 sb_8__0_\.mux_top_track_4\.sky130_fd_sc_hd__mux2_1_2_X
*762 sb_8__0_\.mux_top_track_4\.sky130_fd_sc_hd__mux2_1_3_X
*763 sb_8__0_\.mux_top_track_4\.sky130_fd_sc_hd__mux2_1_4_X
*764 sb_8__0_\.mux_top_track_40\.out
*765 sb_8__0_\.mux_top_track_40\.sky130_fd_sc_hd__mux2_1_0_X
*766 sb_8__0_\.mux_top_track_40\.sky130_fd_sc_hd__mux2_1_1_X
*767 sb_8__0_\.mux_top_track_42\.out
*768 sb_8__0_\.mux_top_track_42\.sky130_fd_sc_hd__mux2_1_0_X
*769 sb_8__0_\.mux_top_track_42\.sky130_fd_sc_hd__mux2_1_1_X
*770 sb_8__0_\.mux_top_track_44\.out
*771 sb_8__0_\.mux_top_track_44\.sky130_fd_sc_hd__mux2_1_0_X
*772 sb_8__0_\.mux_top_track_44\.sky130_fd_sc_hd__mux2_1_1_X
*773 sb_8__0_\.mux_top_track_44\.sky130_fd_sc_hd__mux2_1_2_X
*774 sb_8__0_\.mux_top_track_46\.out
*775 sb_8__0_\.mux_top_track_46\.sky130_fd_sc_hd__mux2_1_0_X
*776 sb_8__0_\.mux_top_track_46\.sky130_fd_sc_hd__mux2_1_1_X
*777 sb_8__0_\.mux_top_track_46\.sky130_fd_sc_hd__mux2_1_2_X
*778 sb_8__0_\.mux_top_track_48\.out
*779 sb_8__0_\.mux_top_track_48\.sky130_fd_sc_hd__mux2_1_0_X
*780 sb_8__0_\.mux_top_track_48\.sky130_fd_sc_hd__mux2_1_1_X
*781 sb_8__0_\.mux_top_track_48\.sky130_fd_sc_hd__mux2_1_2_X
*782 sb_8__0_\.mux_top_track_50\.out
*783 sb_8__0_\.mux_top_track_50\.sky130_fd_sc_hd__mux2_1_0_X
*784 sb_8__0_\.mux_top_track_50\.sky130_fd_sc_hd__mux2_1_1_X
*785 sb_8__0_\.mux_top_track_50\.sky130_fd_sc_hd__mux2_1_2_X
*786 sb_8__0_\.mux_top_track_6\.out
*787 sb_8__0_\.mux_top_track_6\.sky130_fd_sc_hd__mux2_1_0_X
*788 sb_8__0_\.mux_top_track_6\.sky130_fd_sc_hd__mux2_1_1_X
*789 sb_8__0_\.mux_top_track_6\.sky130_fd_sc_hd__mux2_1_2_X
*790 sb_8__0_\.mux_top_track_6\.sky130_fd_sc_hd__mux2_1_3_X
*791 sb_8__0_\.mux_top_track_6\.sky130_fd_sc_hd__mux2_1_4_X
*792 sb_8__0_\.mux_top_track_8\.out
*793 sb_8__0_\.mux_top_track_8\.sky130_fd_sc_hd__mux2_1_0_X
*794 sb_8__0_\.mux_top_track_8\.sky130_fd_sc_hd__mux2_1_1_X
*795 sb_8__0_\.mux_top_track_8\.sky130_fd_sc_hd__mux2_1_2_X
*796 sb_8__0_\.mux_top_track_8\.sky130_fd_sc_hd__mux2_1_3_X
*797 sb_8__0_\.mux_top_track_8\.sky130_fd_sc_hd__mux2_1_4_X
*798 ANTENNA_1
*799 ANTENNA_10
*800 ANTENNA_11
*801 ANTENNA_12
*802 ANTENNA_13
*803 ANTENNA_14
*804 ANTENNA_15
*805 ANTENNA_16
*806 ANTENNA_17
*807 ANTENNA_18
*808 ANTENNA_19
*809 ANTENNA_2
*810 ANTENNA_20
*811 ANTENNA_21
*812 ANTENNA_22
*813 ANTENNA_23
*814 ANTENNA_3
*815 ANTENNA_4
*816 ANTENNA_5
*817 ANTENNA_6
*818 ANTENNA_7
*819 ANTENNA_8
*820 ANTENNA_9
*821 ANTENNA__096__A
*822 ANTENNA__097__A
*823 ANTENNA__098__A
*824 ANTENNA__099__A
*825 ANTENNA__101__A
*826 ANTENNA__104__A
*827 ANTENNA__105__A
*828 ANTENNA__106__A
*829 ANTENNA__107__A
*830 ANTENNA__112__A
*831 ANTENNA__113__A
*832 ANTENNA__114__A
*833 ANTENNA__115__A
*834 ANTENNA__118__A
*835 ANTENNA__119__A
*836 ANTENNA__120__A
*837 ANTENNA__121__A
*838 ANTENNA__123__A
*839 ANTENNA__124__A
*840 ANTENNA__129__A
*841 ANTENNA__130__A
*842 ANTENNA__132__A
*843 ANTENNA__133__A
*844 ANTENNA__137__A
*845 ANTENNA__141__A
*846 ANTENNA__142__A
*847 ANTENNA__143__A
*848 ANTENNA__144__A
*849 ANTENNA__145__A
*850 ANTENNA__146__A
*851 ANTENNA__147__A
*852 ANTENNA__148__A
*853 ANTENNA__149__A
*854 ANTENNA__150__A
*855 ANTENNA__151__A
*856 ANTENNA__152__A
*857 ANTENNA__154__A
*858 ANTENNA__156__A
*859 ANTENNA_cbx_8__0_\.cbx_8__0_\.mem_top_ipin_0\.sky130_fd_sc_hd__dfrtp_1_0__RESET_B
*860 ANTENNA_cbx_8__0_\.cbx_8__0_\.mem_top_ipin_0\.sky130_fd_sc_hd__dfrtp_1_1__RESET_B
*861 ANTENNA_cbx_8__0_\.cbx_8__0_\.mem_top_ipin_0\.sky130_fd_sc_hd__dfrtp_1_2__RESET_B
*862 ANTENNA_cbx_8__0_\.cbx_8__0_\.mem_top_ipin_0\.sky130_fd_sc_hd__dfrtp_1_3__RESET_B
*863 ANTENNA_cbx_8__0_\.cbx_8__0_\.mem_top_ipin_1\.sky130_fd_sc_hd__dfrtp_1_0__RESET_B
*864 ANTENNA_cbx_8__0_\.cbx_8__0_\.mem_top_ipin_1\.sky130_fd_sc_hd__dfrtp_1_1__RESET_B
*865 ANTENNA_cbx_8__0_\.cbx_8__0_\.mem_top_ipin_1\.sky130_fd_sc_hd__dfrtp_1_2__RESET_B
*866 ANTENNA_cbx_8__0_\.cbx_8__0_\.mem_top_ipin_1\.sky130_fd_sc_hd__dfrtp_1_3__RESET_B
*867 ANTENNA_cbx_8__0_\.cbx_8__0_\.mem_top_ipin_2\.sky130_fd_sc_hd__dfrtp_1_0__RESET_B
*868 ANTENNA_cbx_8__0_\.cbx_8__0_\.mem_top_ipin_2\.sky130_fd_sc_hd__dfrtp_1_1__RESET_B
*869 ANTENNA_cbx_8__0_\.cbx_8__0_\.mem_top_ipin_2\.sky130_fd_sc_hd__dfrtp_1_2__RESET_B
*870 ANTENNA_cbx_8__0_\.cbx_8__0_\.mem_top_ipin_2\.sky130_fd_sc_hd__dfrtp_1_3__RESET_B
*871 ANTENNA_cbx_8__0_\.cbx_8__0_\.mem_top_ipin_3\.sky130_fd_sc_hd__dfrtp_1_0__RESET_B
*872 ANTENNA_cbx_8__0_\.cbx_8__0_\.mem_top_ipin_3\.sky130_fd_sc_hd__dfrtp_1_1__RESET_B
*873 ANTENNA_cbx_8__0_\.cbx_8__0_\.mem_top_ipin_3\.sky130_fd_sc_hd__dfrtp_1_2__RESET_B
*874 ANTENNA_cbx_8__0_\.cbx_8__0_\.mem_top_ipin_3\.sky130_fd_sc_hd__dfrtp_1_3__RESET_B
*875 ANTENNA_cbx_8__0_\.cbx_8__0_\.mux_top_ipin_0\.mux_l1_in_0__A1
*876 ANTENNA_cbx_8__0_\.cbx_8__0_\.mux_top_ipin_0\.mux_l1_in_2__A0
*877 ANTENNA_cbx_8__0_\.cbx_8__0_\.mux_top_ipin_0\.mux_l1_in_2__A1
*878 ANTENNA_cbx_8__0_\.cbx_8__0_\.mux_top_ipin_0\.mux_l1_in_3__A0
*879 ANTENNA_cbx_8__0_\.cbx_8__0_\.mux_top_ipin_0\.mux_l1_in_3__A1
*880 ANTENNA_cbx_8__0_\.cbx_8__0_\.mux_top_ipin_0\.mux_l1_in_4__A0
*881 ANTENNA_cbx_8__0_\.cbx_8__0_\.mux_top_ipin_0\.mux_l1_in_4__A1
*882 ANTENNA_cbx_8__0_\.cbx_8__0_\.mux_top_ipin_0\.mux_l2_in_3__A1
*883 ANTENNA_cbx_8__0_\.cbx_8__0_\.mux_top_ipin_1\.mux_l1_in_0__A0