*SPEF "ieee 1481-1999"
*DESIGN "bottom_right_tile"
*DATE "11:11:11 Fri 11 11, 1111"
*VENDOR "OpenRCX"
*PROGRAM "Parallel Extraction"
*VERSION "1.0"
*DESIGN_FLOW "NAME_SCOPE LOCAL" "PIN_CAP NONE"
*DIVIDER /
*DELIMITER :
*BUS_DELIMITER []
*T_UNIT 1 NS
*C_UNIT 1 PF
*R_UNIT 1 OHM
*L_UNIT 1 HENRY

*NAME_MAP
*3 ccff_head
*4 ccff_head_1
*5 ccff_tail
*6 ccff_tail_0
*7 chanx_left_in[0]
*8 chanx_left_in[10]
*9 chanx_left_in[11]
*10 chanx_left_in[12]
*11 chanx_left_in[13]
*12 chanx_left_in[14]
*13 chanx_left_in[15]
*14 chanx_left_in[16]
*15 chanx_left_in[17]
*16 chanx_left_in[18]
*17 chanx_left_in[19]
*18 chanx_left_in[1]
*19 chanx_left_in[20]
*20 chanx_left_in[21]
*21 chanx_left_in[22]
*22 chanx_left_in[23]
*23 chanx_left_in[24]
*24 chanx_left_in[25]
*25 chanx_left_in[26]
*26 chanx_left_in[27]
*27 chanx_left_in[28]
*28 chanx_left_in[29]
*29 chanx_left_in[2]
*30 chanx_left_in[3]
*31 chanx_left_in[4]
*32 chanx_left_in[5]
*33 chanx_left_in[6]
*34 chanx_left_in[7]
*35 chanx_left_in[8]
*36 chanx_left_in[9]
*37 chanx_left_out[0]
*38 chanx_left_out[10]
*39 chanx_left_out[11]
*40 chanx_left_out[12]
*41 chanx_left_out[13]
*42 chanx_left_out[14]
*43 chanx_left_out[15]
*44 chanx_left_out[16]
*45 chanx_left_out[17]
*46 chanx_left_out[18]
*47 chanx_left_out[19]
*48 chanx_left_out[1]
*49 chanx_left_out[20]
*50 chanx_left_out[21]
*51 chanx_left_out[22]
*52 chanx_left_out[23]
*53 chanx_left_out[24]
*54 chanx_left_out[25]
*55 chanx_left_out[26]
*56 chanx_left_out[27]
*57 chanx_left_out[28]
*58 chanx_left_out[29]
*59 chanx_left_out[2]
*60 chanx_left_out[3]
*61 chanx_left_out[4]
*62 chanx_left_out[5]
*63 chanx_left_out[6]
*64 chanx_left_out[7]
*65 chanx_left_out[8]
*66 chanx_left_out[9]
*67 chany_top_in[0]
*68 chany_top_in[10]
*69 chany_top_in[11]
*70 chany_top_in[12]
*71 chany_top_in[13]
*72 chany_top_in[14]
*73 chany_top_in[15]
*74 chany_top_in[16]
*75 chany_top_in[17]
*76 chany_top_in[18]
*77 chany_top_in[19]
*78 chany_top_in[1]
*79 chany_top_in[20]
*80 chany_top_in[21]
*81 chany_top_in[22]
*82 chany_top_in[23]
*83 chany_top_in[24]
*84 chany_top_in[25]
*85 chany_top_in[26]
*86 chany_top_in[27]
*87 chany_top_in[28]
*88 chany_top_in[29]
*89 chany_top_in[2]
*90 chany_top_in[3]
*91 chany_top_in[4]
*92 chany_top_in[5]
*93 chany_top_in[6]
*94 chany_top_in[7]
*95 chany_top_in[8]
*96 chany_top_in[9]
*97 chany_top_out[0]
*98 chany_top_out[10]
*99 chany_top_out[11]
*100 chany_top_out[12]
*101 chany_top_out[13]
*102 chany_top_out[14]
*103 chany_top_out[15]
*104 chany_top_out[16]
*105 chany_top_out[17]
*106 chany_top_out[18]
*107 chany_top_out[19]
*108 chany_top_out[1]
*109 chany_top_out[20]
*110 chany_top_out[21]
*111 chany_top_out[22]
*112 chany_top_out[23]
*113 chany_top_out[24]
*114 chany_top_out[25]
*115 chany_top_out[26]
*116 chany_top_out[27]
*117 chany_top_out[28]
*118 chany_top_out[29]
*119 chany_top_out[2]
*120 chany_top_out[3]
*121 chany_top_out[4]
*122 chany_top_out[5]
*123 chany_top_out[6]
*124 chany_top_out[7]
*125 chany_top_out[8]
*126 chany_top_out[9]
*127 gfpga_pad_io_soc_dir[0]
*128 gfpga_pad_io_soc_dir[1]
*129 gfpga_pad_io_soc_dir[2]
*130 gfpga_pad_io_soc_dir[3]
*131 gfpga_pad_io_soc_in[0]
*132 gfpga_pad_io_soc_in[1]
*133 gfpga_pad_io_soc_in[2]
*134 gfpga_pad_io_soc_in[3]
*135 gfpga_pad_io_soc_out[0]
*136 gfpga_pad_io_soc_out[1]
*137 gfpga_pad_io_soc_out[2]
*138 gfpga_pad_io_soc_out[3]
*139 isol_n
*140 prog_clk
*141 prog_reset_top_in
*142 reset_top_in
*143 test_enable_top_in
*144 top_left_grid_right_width_0_height_0_subtile_0__pin_O_10_
*145 top_left_grid_right_width_0_height_0_subtile_0__pin_O_11_
*146 top_left_grid_right_width_0_height_0_subtile_0__pin_O_12_
*147 top_left_grid_right_width_0_height_0_subtile_0__pin_O_13_
*148 top_left_grid_right_width_0_height_0_subtile_0__pin_O_14_
*149 top_left_grid_right_width_0_height_0_subtile_0__pin_O_15_
*150 top_left_grid_right_width_0_height_0_subtile_0__pin_O_8_
*151 top_left_grid_right_width_0_height_0_subtile_0__pin_O_9_
*152 top_right_grid_left_width_0_height_0_subtile_0__pin_inpad_0_
*153 top_right_grid_left_width_0_height_0_subtile_1__pin_inpad_0_
*154 top_right_grid_left_width_0_height_0_subtile_2__pin_inpad_0_
*155 top_right_grid_left_width_0_height_0_subtile_3__pin_inpad_0_
*156 top_width_0_height_0_subtile_0__pin_inpad_0_
*157 top_width_0_height_0_subtile_1__pin_inpad_0_
*158 top_width_0_height_0_subtile_2__pin_inpad_0_
*159 top_width_0_height_0_subtile_3__pin_inpad_0_
*160 cbx_8__0_\.bottom_grid_top_width_0_height_0_subtile_0__pin_outpad_0_
*161 cbx_8__0_\.bottom_grid_top_width_0_height_0_subtile_1__pin_outpad_0_
*162 cbx_8__0_\.bottom_grid_top_width_0_height_0_subtile_2__pin_outpad_0_
*163 cbx_8__0_\.bottom_grid_top_width_0_height_0_subtile_3__pin_outpad_0_
*164 cbx_8__0_\.cbx_8__0_\.ccff_head
*165 cbx_8__0_\.cbx_8__0_\.mem_top_ipin_0\.ccff_tail
*166 cbx_8__0_\.cbx_8__0_\.mem_top_ipin_0\.mem_out\[0\]
*167 cbx_8__0_\.cbx_8__0_\.mem_top_ipin_0\.mem_out\[1\]
*168 cbx_8__0_\.cbx_8__0_\.mem_top_ipin_0\.mem_out\[2\]
*169 cbx_8__0_\.cbx_8__0_\.mem_top_ipin_1\.ccff_tail
*170 cbx_8__0_\.cbx_8__0_\.mem_top_ipin_1\.mem_out\[0\]
*171 cbx_8__0_\.cbx_8__0_\.mem_top_ipin_1\.mem_out\[1\]
*172 cbx_8__0_\.cbx_8__0_\.mem_top_ipin_1\.mem_out\[2\]
*173 cbx_8__0_\.cbx_8__0_\.mem_top_ipin_2\.ccff_tail
*174 cbx_8__0_\.cbx_8__0_\.mem_top_ipin_2\.mem_out\[0\]
*175 cbx_8__0_\.cbx_8__0_\.mem_top_ipin_2\.mem_out\[1\]
*176 cbx_8__0_\.cbx_8__0_\.mem_top_ipin_2\.mem_out\[2\]
*177 cbx_8__0_\.cbx_8__0_\.mem_top_ipin_3\.mem_out\[0\]
*178 cbx_8__0_\.cbx_8__0_\.mem_top_ipin_3\.mem_out\[1\]
*179 cbx_8__0_\.cbx_8__0_\.mem_top_ipin_3\.mem_out\[2\]
*180 cbx_8__0_\.cbx_8__0_\.mux_top_ipin_0\.sky130_fd_sc_hd__mux2_1_0_X
*181 cbx_8__0_\.cbx_8__0_\.mux_top_ipin_0\.sky130_fd_sc_hd__mux2_1_10_X
*182 cbx_8__0_\.cbx_8__0_\.mux_top_ipin_0\.sky130_fd_sc_hd__mux2_1_11_X
*183 cbx_8__0_\.cbx_8__0_\.mux_top_ipin_0\.sky130_fd_sc_hd__mux2_1_1_X
*184 cbx_8__0_\.cbx_8__0_\.mux_top_ipin_0\.sky130_fd_sc_hd__mux2_1_2_X
*185 cbx_8__0_\.cbx_8__0_\.mux_top_ipin_0\.sky130_fd_sc_hd__mux2_1_3_X
*186 cbx_8__0_\.cbx_8__0_\.mux_top_ipin_0\.sky130_fd_sc_hd__mux2_1_4_X
*187 cbx_8__0_\.cbx_8__0_\.mux_top_ipin_0\.sky130_fd_sc_hd__mux2_1_5_X
*188 cbx_8__0_\.cbx_8__0_\.mux_top_ipin_0\.sky130_fd_sc_hd__mux2_1_6_X
*189 cbx_8__0_\.cbx_8__0_\.mux_top_ipin_0\.sky130_fd_sc_hd__mux2_1_7_X
*190 cbx_8__0_\.cbx_8__0_\.mux_top_ipin_0\.sky130_fd_sc_hd__mux2_1_8_X
*191 cbx_8__0_\.cbx_8__0_\.mux_top_ipin_0\.sky130_fd_sc_hd__mux2_1_9_X
*192 cbx_8__0_\.cbx_8__0_\.mux_top_ipin_1\.sky130_fd_sc_hd__mux2_1_0_X
*193 cbx_8__0_\.cbx_8__0_\.mux_top_ipin_1\.sky130_fd_sc_hd__mux2_1_10_X
*194 cbx_8__0_\.cbx_8__0_\.mux_top_ipin_1\.sky130_fd_sc_hd__mux2_1_11_X
*195 cbx_8__0_\.cbx_8__0_\.mux_top_ipin_1\.sky130_fd_sc_hd__mux2_1_1_X
*196 cbx_8__0_\.cbx_8__0_\.mux_top_ipin_1\.sky130_fd_sc_hd__mux2_1_2_X
*197 cbx_8__0_\.cbx_8__0_\.mux_top_ipin_1\.sky130_fd_sc_hd__mux2_1_3_X
*198 cbx_8__0_\.cbx_8__0_\.mux_top_ipin_1\.sky130_fd_sc_hd__mux2_1_4_X
*199 cbx_8__0_\.cbx_8__0_\.mux_top_ipin_1\.sky130_fd_sc_hd__mux2_1_5_X
*200 cbx_8__0_\.cbx_8__0_\.mux_top_ipin_1\.sky130_fd_sc_hd__mux2_1_6_X
*201 cbx_8__0_\.cbx_8__0_\.mux_top_ipin_1\.sky130_fd_sc_hd__mux2_1_7_X
*202 cbx_8__0_\.cbx_8__0_\.mux_top_ipin_1\.sky130_fd_sc_hd__mux2_1_8_X
*203 cbx_8__0_\.cbx_8__0_\.mux_top_ipin_1\.sky130_fd_sc_hd__mux2_1_9_X
*204 cbx_8__0_\.cbx_8__0_\.mux_top_ipin_2\.sky130_fd_sc_hd__mux2_1_0_X
*205 cbx_8__0_\.cbx_8__0_\.mux_top_ipin_2\.sky130_fd_sc_hd__mux2_1_10_X
*206 cbx_8__0_\.cbx_8__0_\.mux_top_ipin_2\.sky130_fd_sc_hd__mux2_1_11_X
*207 cbx_8__0_\.cbx_8__0_\.mux_top_ipin_2\.sky130_fd_sc_hd__mux2_1_1_X
*208 cbx_8__0_\.cbx_8__0_\.mux_top_ipin_2\.sky130_fd_sc_hd__mux2_1_2_X
*209 cbx_8__0_\.cbx_8__0_\.mux_top_ipin_2\.sky130_fd_sc_hd__mux2_1_3_X
*210 cbx_8__0_\.cbx_8__0_\.mux_top_ipin_2\.sky130_fd_sc_hd__mux2_1_4_X
*211 cbx_8__0_\.cbx_8__0_\.mux_top_ipin_2\.sky130_fd_sc_hd__mux2_1_5_X
*212 cbx_8__0_\.cbx_8__0_\.mux_top_ipin_2\.sky130_fd_sc_hd__mux2_1_6_X
*213 cbx_8__0_\.cbx_8__0_\.mux_top_ipin_2\.sky130_fd_sc_hd__mux2_1_7_X
*214 cbx_8__0_\.cbx_8__0_\.mux_top_ipin_2\.sky130_fd_sc_hd__mux2_1_8_X
*215 cbx_8__0_\.cbx_8__0_\.mux_top_ipin_2\.sky130_fd_sc_hd__mux2_1_9_X
*216 cbx_8__0_\.cbx_8__0_\.mux_top_ipin_3\.sky130_fd_sc_hd__mux2_1_0_X
*217 cbx_8__0_\.cbx_8__0_\.mux_top_ipin_3\.sky130_fd_sc_hd__mux2_1_10_X
*218 cbx_8__0_\.cbx_8__0_\.mux_top_ipin_3\.sky130_fd_sc_hd__mux2_1_11_X
*219 cbx_8__0_\.cbx_8__0_\.mux_top_ipin_3\.sky130_fd_sc_hd__mux2_1_1_X
*220 cbx_8__0_\.cbx_8__0_\.mux_top_ipin_3\.sky130_fd_sc_hd__mux2_1_2_X
*221 cbx_8__0_\.cbx_8__0_\.mux_top_ipin_3\.sky130_fd_sc_hd__mux2_1_3_X
*222 cbx_8__0_\.cbx_8__0_\.mux_top_ipin_3\.sky130_fd_sc_hd__mux2_1_4_X
*223 cbx_8__0_\.cbx_8__0_\.mux_top_ipin_3\.sky130_fd_sc_hd__mux2_1_5_X
*224 cbx_8__0_\.cbx_8__0_\.mux_top_ipin_3\.sky130_fd_sc_hd__mux2_1_6_X
*225 cbx_8__0_\.cbx_8__0_\.mux_top_ipin_3\.sky130_fd_sc_hd__mux2_1_7_X
*226 cbx_8__0_\.cbx_8__0_\.mux_top_ipin_3\.sky130_fd_sc_hd__mux2_1_8_X
*227 cbx_8__0_\.cbx_8__0_\.mux_top_ipin_3\.sky130_fd_sc_hd__mux2_1_9_X
*228 cbx_8__0_\.grid_io_bottom_bottom_8__0_\.logical_tile_io_mode_io__0\.ccff_tail
*229 cbx_8__0_\.grid_io_bottom_bottom_8__0_\.logical_tile_io_mode_io__0\.gfpga_pad_io_soc_dir
*230 cbx_8__0_\.grid_io_bottom_bottom_8__0_\.logical_tile_io_mode_io__0\.gfpga_pad_io_soc_out
*231 cbx_8__0_\.grid_io_bottom_bottom_8__0_\.logical_tile_io_mode_io__0\.logical_tile_io_mode_physical__iopad_0\.io_0_\.SOC_DIR_N
*232 cbx_8__0_\.grid_io_bottom_bottom_8__0_\.logical_tile_io_mode_io__1\.ccff_tail
*233 cbx_8__0_\.grid_io_bottom_bottom_8__0_\.logical_tile_io_mode_io__1\.gfpga_pad_io_soc_dir
*234 cbx_8__0_\.grid_io_bottom_bottom_8__0_\.logical_tile_io_mode_io__1\.gfpga_pad_io_soc_out
*235 cbx_8__0_\.grid_io_bottom_bottom_8__0_\.logical_tile_io_mode_io__1\.logical_tile_io_mode_physical__iopad_0\.io_0_\.SOC_DIR_N
*236 cbx_8__0_\.grid_io_bottom_bottom_8__0_\.logical_tile_io_mode_io__2\.ccff_tail
*237 cbx_8__0_\.grid_io_bottom_bottom_8__0_\.logical_tile_io_mode_io__2\.gfpga_pad_io_soc_dir
*238 cbx_8__0_\.grid_io_bottom_bottom_8__0_\.logical_tile_io_mode_io__2\.gfpga_pad_io_soc_out
*239 cbx_8__0_\.grid_io_bottom_bottom_8__0_\.logical_tile_io_mode_io__2\.logical_tile_io_mode_physical__iopad_0\.io_0_\.SOC_DIR_N
*240 cbx_8__0_\.grid_io_bottom_bottom_8__0_\.logical_tile_io_mode_io__3\.gfpga_pad_io_soc_dir
*241 cbx_8__0_\.grid_io_bottom_bottom_8__0_\.logical_tile_io_mode_io__3\.gfpga_pad_io_soc_out
*242 cbx_8__0_\.grid_io_bottom_bottom_8__0_\.logical_tile_io_mode_io__3\.logical_tile_io_mode_physical__iopad_0\.io_0_\.SOC_DIR_N
*243 clknet_0_prog_clk
*244 clknet_4_0_0_prog_clk
*245 clknet_4_10_0_prog_clk
*246 clknet_4_11_0_prog_clk
*247 clknet_4_12_0_prog_clk
*248 clknet_4_13_0_prog_clk
*249 clknet_4_14_0_prog_clk
*250 clknet_4_15_0_prog_clk
*251 clknet_4_1_0_prog_clk
*252 clknet_4_2_0_prog_clk
*253 clknet_4_3_0_prog_clk
*254 clknet_4_4_0_prog_clk
*255 clknet_4_5_0_prog_clk
*256 clknet_4_6_0_prog_clk
*257 clknet_4_7_0_prog_clk
*258 clknet_4_8_0_prog_clk
*259 clknet_4_9_0_prog_clk
*260 net1
*261 net10
*262 net100
*263 net101
*264 net102
*265 net103
*266 net104
*267 net105
*268 net106
*269 net107
*270 net108
*271 net109
*272 net11
*273 net110
*274 net111
*275 net112
*276 net113
*277 net114
*278 net115
*279 net116
*280 net117
*281 net118
*282 net119
*283 net12
*284 net120
*285 net121
*286 net122
*287 net123
*288 net124
*289 net125
*290 net126
*291 net127
*292 net128
*293 net129
*294 net13
*295 net130
*296 net131
*297 net132
*298 net133
*299 net134
*300 net135
*301 net136
*302 net137
*303 net138
*304 net139
*305 net14
*306 net140
*307 net141
*308 net142
*309 net143
*310 net144
*311 net145
*312 net146
*313 net147
*314 net148
*315 net149
*316 net15
*317 net150
*318 net151
*319 net152
*320 net153
*321 net154
*322 net155
*323 net156
*324 net157
*325 net158
*326 net159
*327 net16
*328 net160
*329 net161
*330 net162
*331 net163
*332 net164
*333 net165
*334 net166
*335 net167
*336 net168
*337 net169
*338 net17
*339 net170
*340 net171
*341 net172
*342 net173
*343 net174
*344 net175
*345 net176
*346 net177
*347 net178
*348 net179
*349 net18
*350 net180
*351 net181
*352 net182
*353 net183
*354 net184
*355 net185
*356 net186
*357 net187
*358 net188
*359 net189
*360 net19
*361 net190
*362 net191
*363 net192
*364 net193
*365 net194
*366 net195
*367 net196
*368 net197
*369 net198
*370 net199
*371 net2
*372 net20
*373 net21
*374 net22
*375 net23
*376 net24
*377 net25
*378 net26
*379 net27
*380 net28
*381 net29
*382 net3
*383 net30
*384 net31
*385 net32
*386 net33
*387 net34
*388 net35
*389 net36
*390 net37
*391 net38
*392 net39
*393 net4
*394 net40
*395 net41
*396 net42
*397 net43
*398 net44
*399 net45
*400 net46
*401 net47
*402 net48
*403 net49
*404 net5
*405 net50
*406 net51
*407 net52
*408 net53
*409 net54
*410 net55
*411 net56
*412 net57
*413 net58
*414 net59
*415 net6
*416 net60
*417 net61
*418 net62
*419 net63
*420 net64
*421 net65
*422 net66
*423 net67
*424 net68
*425 net69
*426 net7
*427 net70
*428 net71
*429 net72
*430 net73
*431 net74
*432 net75
*433 net76
*434 net77
*435 net78
*436 net79
*437 net8
*438 net80
*439 net81
*440 net82
*441 net83
*442 net84
*443 net85
*444 net86
*445 net87
*446 net88
*447 net89
*448 net9
*449 net90
*450 net91
*451 net92
*452 net93
*453 net94
*454 net95
*455 net96
*456 net97
*457 net98
*458 net99
*459 sb_8__0_\.mem_left_track_1\.ccff_head
*460 sb_8__0_\.mem_left_track_1\.ccff_tail
*461 sb_8__0_\.mem_left_track_1\.mem_out\[0\]
*462 sb_8__0_\.mem_left_track_11\.ccff_head
*463 sb_8__0_\.mem_left_track_11\.ccff_tail
*464 sb_8__0_\.mem_left_track_11\.mem_out\[0\]
*465 sb_8__0_\.mem_left_track_13\.ccff_tail
*466 sb_8__0_\.mem_left_track_13\.mem_out\[0\]
*467 sb_8__0_\.mem_left_track_15\.ccff_tail
*468 sb_8__0_\.mem_left_track_15\.mem_out\[0\]
*469 sb_8__0_\.mem_left_track_17\.ccff_tail
*470 sb_8__0_\.mem_left_track_17\.mem_out\[0\]
*471 sb_8__0_\.mem_left_track_19\.ccff_tail
*472 sb_8__0_\.mem_left_track_19\.mem_out\[0\]
*473 sb_8__0_\.mem_left_track_29\.ccff_tail
*474 sb_8__0_\.mem_left_track_29\.mem_out\[0\]
*475 sb_8__0_\.mem_left_track_3\.ccff_tail
*476 sb_8__0_\.mem_left_track_3\.mem_out\[0\]
*477 sb_8__0_\.mem_left_track_31\.ccff_tail
*478 sb_8__0_\.mem_left_track_31\.mem_out\[0\]
*479 sb_8__0_\.mem_left_track_33\.ccff_tail
*480 sb_8__0_\.mem_left_track_33\.mem_out\[0\]
*481 sb_8__0_\.mem_left_track_35\.ccff_tail
*482 sb_8__0_\.mem_left_track_35\.mem_out\[0\]
*483 sb_8__0_\.mem_left_track_45\.ccff_tail
*484 sb_8__0_\.mem_left_track_45\.mem_out\[0\]
*485 sb_8__0_\.mem_left_track_47\.ccff_tail
*486 sb_8__0_\.mem_left_track_47\.mem_out\[0\]
*487 sb_8__0_\.mem_left_track_49\.ccff_tail
*488 sb_8__0_\.mem_left_track_49\.mem_out\[0\]
*489 sb_8__0_\.mem_left_track_5\.ccff_tail
*490 sb_8__0_\.mem_left_track_5\.mem_out\[0\]
*491 sb_8__0_\.mem_left_track_51\.mem_out\[0\]
*492 sb_8__0_\.mem_left_track_7\.ccff_tail
*493 sb_8__0_\.mem_left_track_7\.mem_out\[0\]
*494 sb_8__0_\.mem_left_track_9\.mem_out\[0\]
*495 sb_8__0_\.mem_top_track_0\.ccff_tail
*496 sb_8__0_\.mem_top_track_0\.mem_out\[0\]
*497 sb_8__0_\.mem_top_track_0\.mem_out\[1\]
*498 sb_8__0_\.mem_top_track_10\.ccff_head
*499 sb_8__0_\.mem_top_track_10\.ccff_tail
*500 sb_8__0_\.mem_top_track_10\.mem_out\[0\]
*501 sb_8__0_\.mem_top_track_10\.mem_out\[1\]
*502 sb_8__0_\.mem_top_track_12\.ccff_tail
*503 sb_8__0_\.mem_top_track_12\.mem_out\[0\]
*504 sb_8__0_\.mem_top_track_14\.ccff_tail
*505 sb_8__0_\.mem_top_track_14\.mem_out\[0\]
*506 sb_8__0_\.mem_top_track_16\.ccff_tail
*507 sb_8__0_\.mem_top_track_16\.mem_out\[0\]
*508 sb_8__0_\.mem_top_track_18\.ccff_tail
*509 sb_8__0_\.mem_top_track_18\.mem_out\[0\]
*510 sb_8__0_\.mem_top_track_2\.ccff_tail
*511 sb_8__0_\.mem_top_track_2\.mem_out\[0\]
*512 sb_8__0_\.mem_top_track_2\.mem_out\[1\]
*513 sb_8__0_\.mem_top_track_20\.ccff_tail
*514 sb_8__0_\.mem_top_track_20\.mem_out\[0\]
*515 sb_8__0_\.mem_top_track_22\.ccff_tail
*516 sb_8__0_\.mem_top_track_22\.mem_out\[0\]
*517 sb_8__0_\.mem_top_track_24\.ccff_tail
*518 sb_8__0_\.mem_top_track_24\.mem_out\[0\]
*519 sb_8__0_\.mem_top_track_26\.ccff_tail
*520 sb_8__0_\.mem_top_track_26\.mem_out\[0\]
*521 sb_8__0_\.mem_top_track_28\.ccff_tail
*522 sb_8__0_\.mem_top_track_28\.mem_out\[0\]
*523 sb_8__0_\.mem_top_track_30\.ccff_tail
*524 sb_8__0_\.mem_top_track_30\.mem_out\[0\]
*525 sb_8__0_\.mem_top_track_32\.ccff_tail
*526 sb_8__0_\.mem_top_track_32\.mem_out\[0\]
*527 sb_8__0_\.mem_top_track_34\.ccff_tail
*528 sb_8__0_\.mem_top_track_34\.mem_out\[0\]
*529 sb_8__0_\.mem_top_track_36\.ccff_tail
*530 sb_8__0_\.mem_top_track_36\.mem_out\[0\]
*531 sb_8__0_\.mem_top_track_38\.ccff_tail
*532 sb_8__0_\.mem_top_track_38\.mem_out\[0\]
*533 sb_8__0_\.mem_top_track_4\.ccff_tail
*534 sb_8__0_\.mem_top_track_4\.mem_out\[0\]
*535 sb_8__0_\.mem_top_track_4\.mem_out\[1\]
*536 sb_8__0_\.mem_top_track_40\.ccff_tail
*537 sb_8__0_\.mem_top_track_40\.mem_out\[0\]
*538 sb_8__0_\.mem_top_track_42\.ccff_tail
*539 sb_8__0_\.mem_top_track_42\.mem_out\[0\]
*540 sb_8__0_\.mem_top_track_44\.ccff_tail
*541 sb_8__0_\.mem_top_track_44\.mem_out\[0\]
*542 sb_8__0_\.mem_top_track_46\.ccff_tail
*543 sb_8__0_\.mem_top_track_46\.mem_out\[0\]
*544 sb_8__0_\.mem_top_track_48\.ccff_tail
*545 sb_8__0_\.mem_top_track_48\.mem_out\[0\]
*546 sb_8__0_\.mem_top_track_50\.mem_out\[0\]
*547 sb_8__0_\.mem_top_track_6\.ccff_tail
*548 sb_8__0_\.mem_top_track_6\.mem_out\[0\]
*549 sb_8__0_\.mem_top_track_6\.mem_out\[1\]
*550 sb_8__0_\.mem_top_track_8\.mem_out\[0\]
*551 sb_8__0_\.mem_top_track_8\.mem_out\[1\]
*552 sb_8__0_\.mux_left_track_1\.out
*553 sb_8__0_\.mux_left_track_1\.sky130_fd_sc_hd__mux2_1_0_X
*554 sb_8__0_\.mux_left_track_1\.sky130_fd_sc_hd__mux2_1_1_X
*555 sb_8__0_\.mux_left_track_1\.sky130_fd_sc_hd__mux2_1_2_X
*556 sb_8__0_\.mux_left_track_11\.out
*557 sb_8__0_\.mux_left_track_11\.sky130_fd_sc_hd__mux2_1_0_X
*558 sb_8__0_\.mux_left_track_11\.sky130_fd_sc_hd__mux2_1_1_X
*559 sb_8__0_\.mux_left_track_13\.out
*560 sb_8__0_\.mux_left_track_13\.sky130_fd_sc_hd__mux2_1_0_X
*561 sb_8__0_\.mux_left_track_13\.sky130_fd_sc_hd__mux2_1_1_X
*562 sb_8__0_\.mux_left_track_15\.out
*563 sb_8__0_\.mux_left_track_15\.sky130_fd_sc_hd__mux2_1_0_X
*564 sb_8__0_\.mux_left_track_15\.sky130_fd_sc_hd__mux2_1_1_X
*565 sb_8__0_\.mux_left_track_17\.out
*566 sb_8__0_\.mux_left_track_17\.sky130_fd_sc_hd__mux2_1_0_X
*567 sb_8__0_\.mux_left_track_17\.sky130_fd_sc_hd__mux2_1_1_X
*568 sb_8__0_\.mux_left_track_19\.out
*569 sb_8__0_\.mux_left_track_19\.sky130_fd_sc_hd__mux2_1_0_X
*570 sb_8__0_\.mux_left_track_19\.sky130_fd_sc_hd__mux2_1_1_X
*571 sb_8__0_\.mux_left_track_29\.out
*572 sb_8__0_\.mux_left_track_29\.sky130_fd_sc_hd__mux2_1_0_X
*573 sb_8__0_\.mux_left_track_29\.sky130_fd_sc_hd__mux2_1_1_X
*574 sb_8__0_\.mux_left_track_3\.out
*575 sb_8__0_\.mux_left_track_3\.sky130_fd_sc_hd__mux2_1_0_X
*576 sb_8__0_\.mux_left_track_3\.sky130_fd_sc_hd__mux2_1_1_X
*577 sb_8__0_\.mux_left_track_31\.out
*578 sb_8__0_\.mux_left_track_31\.sky130_fd_sc_hd__mux2_1_0_X
*579 sb_8__0_\.mux_left_track_31\.sky130_fd_sc_hd__mux2_1_1_X
*580 sb_8__0_\.mux_left_track_33\.out
*581 sb_8__0_\.mux_left_track_33\.sky130_fd_sc_hd__mux2_1_0_X
*582 sb_8__0_\.mux_left_track_33\.sky130_fd_sc_hd__mux2_1_1_X
*583 sb_8__0_\.mux_left_track_35\.out
*584 sb_8__0_\.mux_left_track_35\.sky130_fd_sc_hd__mux2_1_0_X
*585 sb_8__0_\.mux_left_track_35\.sky130_fd_sc_hd__mux2_1_1_X
*586 sb_8__0_\.mux_left_track_45\.out
*587 sb_8__0_\.mux_left_track_45\.sky130_fd_sc_hd__mux2_1_0_X
*588 sb_8__0_\.mux_left_track_45\.sky130_fd_sc_hd__mux2_1_1_X
*589 sb_8__0_\.mux_left_track_47\.out
*590 sb_8__0_\.mux_left_track_47\.sky130_fd_sc_hd__mux2_1_0_X
*591 sb_8__0_\.mux_left_track_47\.sky130_fd_sc_hd__mux2_1_1_X
*592 sb_8__0_\.mux_left_track_49\.out
*593 sb_8__0_\.mux_left_track_49\.sky130_fd_sc_hd__mux2_1_0_X
*594 sb_8__0_\.mux_left_track_49\.sky130_fd_sc_hd__mux2_1_1_X
*595 sb_8__0_\.mux_left_track_5\.out
*596 sb_8__0_\.mux_left_track_5\.sky130_fd_sc_hd__mux2_1_0_X
*597 sb_8__0_\.mux_left_track_5\.sky130_fd_sc_hd__mux2_1_1_X
*598 sb_8__0_\.mux_left_track_51\.out
*599 sb_8__0_\.mux_left_track_51\.sky130_fd_sc_hd__mux2_1_0_X
*600 sb_8__0_\.mux_left_track_51\.sky130_fd_sc_hd__mux2_1_1_X
*601 sb_8__0_\.mux_left_track_7\.out
*602 sb_8__0_\.mux_left_track_7\.sky130_fd_sc_hd__mux2_1_0_X
*603 sb_8__0_\.mux_left_track_7\.sky130_fd_sc_hd__mux2_1_1_X
*604 sb_8__0_\.mux_left_track_7\.sky130_fd_sc_hd__mux2_1_2_X
*605 sb_8__0_\.mux_left_track_9\.out
*606 sb_8__0_\.mux_left_track_9\.sky130_fd_sc_hd__mux2_1_0_X
*607 sb_8__0_\.mux_left_track_9\.sky130_fd_sc_hd__mux2_1_1_X
*608 sb_8__0_\.mux_top_track_0\.out
*609 sb_8__0_\.mux_top_track_0\.sky130_fd_sc_hd__mux2_1_0_X
*610 sb_8__0_\.mux_top_track_0\.sky130_fd_sc_hd__mux2_1_1_X
*611 sb_8__0_\.mux_top_track_0\.sky130_fd_sc_hd__mux2_1_2_X
*612 sb_8__0_\.mux_top_track_0\.sky130_fd_sc_hd__mux2_1_3_X
*613 sb_8__0_\.mux_top_track_0\.sky130_fd_sc_hd__mux2_1_4_X
*614 sb_8__0_\.mux_top_track_10\.out
*615 sb_8__0_\.mux_top_track_10\.sky130_fd_sc_hd__mux2_1_0_X
*616 sb_8__0_\.mux_top_track_10\.sky130_fd_sc_hd__mux2_1_1_X
*617 sb_8__0_\.mux_top_track_10\.sky130_fd_sc_hd__mux2_1_2_X
*618 sb_8__0_\.mux_top_track_10\.sky130_fd_sc_hd__mux2_1_3_X
*619 sb_8__0_\.mux_top_track_10\.sky130_fd_sc_hd__mux2_1_4_X
*620 sb_8__0_\.mux_top_track_12\.out
*621 sb_8__0_\.mux_top_track_12\.sky130_fd_sc_hd__mux2_1_0_X
*622 sb_8__0_\.mux_top_track_12\.sky130_fd_sc_hd__mux2_1_1_X
*623 sb_8__0_\.mux_top_track_12\.sky130_fd_sc_hd__mux2_1_2_X
*624 sb_8__0_\.mux_top_track_14\.out
*625 sb_8__0_\.mux_top_track_14\.sky130_fd_sc_hd__mux2_1_0_X
*626 sb_8__0_\.mux_top_track_14\.sky130_fd_sc_hd__mux2_1_1_X
*627 sb_8__0_\.mux_top_track_14\.sky130_fd_sc_hd__mux2_1_2_X
*628 sb_8__0_\.mux_top_track_16\.out
*629 sb_8__0_\.mux_top_track_16\.sky130_fd_sc_hd__mux2_1_0_X
*630 sb_8__0_\.mux_top_track_16\.sky130_fd_sc_hd__mux2_1_1_X
*631 sb_8__0_\.mux_top_track_16\.sky130_fd_sc_hd__mux2_1_2_X
*632 sb_8__0_\.mux_top_track_18\.out
*633 sb_8__0_\.mux_top_track_18\.sky130_fd_sc_hd__mux2_1_0_X
*634 sb_8__0_\.mux_top_track_18\.sky130_fd_sc_hd__mux2_1_1_X
*635 sb_8__0_\.mux_top_track_18\.sky130_fd_sc_hd__mux2_1_2_X
*636 sb_8__0_\.mux_top_track_2\.out
*637 sb_8__0_\.mux_top_track_2\.sky130_fd_sc_hd__mux2_1_0_X
*638 sb_8__0_\.mux_top_track_2\.sky130_fd_sc_hd__mux2_1_1_X
*639 sb_8__0_\.mux_top_track_2\.sky130_fd_sc_hd__mux2_1_2_X
*640 sb_8__0_\.mux_top_track_2\.sky130_fd_sc_hd__mux2_1_3_X
*641 sb_8__0_\.mux_top_track_2\.sky130_fd_sc_hd__mux2_1_4_X
*642 sb_8__0_\.mux_top_track_20\.out
*643 sb_8__0_\.mux_top_track_20\.sky130_fd_sc_hd__mux2_1_0_X
*644 sb_8__0_\.mux_top_track_20\.sky130_fd_sc_hd__mux2_1_1_X
*645 sb_8__0_\.mux_top_track_22\.out
*646 sb_8__0_\.mux_top_track_22\.sky130_fd_sc_hd__mux2_1_0_X
*647 sb_8__0_\.mux_top_track_22\.sky130_fd_sc_hd__mux2_1_1_X
*648 sb_8__0_\.mux_top_track_24\.out
*649 sb_8__0_\.mux_top_track_24\.sky130_fd_sc_hd__mux2_1_0_X
*650 sb_8__0_\.mux_top_track_24\.sky130_fd_sc_hd__mux2_1_1_X
*651 sb_8__0_\.mux_top_track_26\.out
*652 sb_8__0_\.mux_top_track_26\.sky130_fd_sc_hd__mux2_1_0_X
*653 sb_8__0_\.mux_top_track_26\.sky130_fd_sc_hd__mux2_1_1_X
*654 sb_8__0_\.mux_top_track_28\.out
*655 sb_8__0_\.mux_top_track_28\.sky130_fd_sc_hd__mux2_1_0_X
*656 sb_8__0_\.mux_top_track_28\.sky130_fd_sc_hd__mux2_1_1_X
*657 sb_8__0_\.mux_top_track_30\.out
*658 sb_8__0_\.mux_top_track_30\.sky130_fd_sc_hd__mux2_1_0_X
*659 sb_8__0_\.mux_top_track_30\.sky130_fd_sc_hd__mux2_1_1_X
*660 sb_8__0_\.mux_top_track_32\.out
*661 sb_8__0_\.mux_top_track_32\.sky130_fd_sc_hd__mux2_1_0_X
*662 sb_8__0_\.mux_top_track_32\.sky130_fd_sc_hd__mux2_1_1_X
*663 sb_8__0_\.mux_top_track_34\.out
*664 sb_8__0_\.mux_top_track_34\.sky130_fd_sc_hd__mux2_1_0_X
*665 sb_8__0_\.mux_top_track_34\.sky130_fd_sc_hd__mux2_1_1_X
*666 sb_8__0_\.mux_top_track_36\.out
*667 sb_8__0_\.mux_top_track_36\.sky130_fd_sc_hd__mux2_1_0_X
*668 sb_8__0_\.mux_top_track_36\.sky130_fd_sc_hd__mux2_1_1_X
*669 sb_8__0_\.mux_top_track_38\.out
*670 sb_8__0_\.mux_top_track_38\.sky130_fd_sc_hd__mux2_1_0_X
*671 sb_8__0_\.mux_top_track_38\.sky130_fd_sc_hd__mux2_1_1_X
*672 sb_8__0_\.mux_top_track_4\.out
*673 sb_8__0_\.mux_top_track_4\.sky130_fd_sc_hd__mux2_1_0_X
*674 sb_8__0_\.mux_top_track_4\.sky130_fd_sc_hd__mux2_1_1_X
*675 sb_8__0_\.mux_top_track_4\.sky130_fd_sc_hd__mux2_1_2_X
*676 sb_8__0_\.mux_top_track_4\.sky130_fd_sc_hd__mux2_1_3_X
*677 sb_8__0_\.mux_top_track_4\.sky130_fd_sc_hd__mux2_1_4_X
*678 sb_8__0_\.mux_top_track_40\.out
*679 sb_8__0_\.mux_top_track_40\.sky130_fd_sc_hd__mux2_1_0_X
*680 sb_8__0_\.mux_top_track_40\.sky130_fd_sc_hd__mux2_1_1_X
*681 sb_8__0_\.mux_top_track_42\.out
*682 sb_8__0_\.mux_top_track_42\.sky130_fd_sc_hd__mux2_1_0_X
*683 sb_8__0_\.mux_top_track_42\.sky130_fd_sc_hd__mux2_1_1_X
*684 sb_8__0_\.mux_top_track_44\.out
*685 sb_8__0_\.mux_top_track_44\.sky130_fd_sc_hd__mux2_1_0_X
*686 sb_8__0_\.mux_top_track_44\.sky130_fd_sc_hd__mux2_1_1_X
*687 sb_8__0_\.mux_top_track_44\.sky130_fd_sc_hd__mux2_1_2_X
*688 sb_8__0_\.mux_top_track_46\.out
*689 sb_8__0_\.mux_top_track_46\.sky130_fd_sc_hd__mux2_1_0_X
*690 sb_8__0_\.mux_top_track_46\.sky130_fd_sc_hd__mux2_1_1_X
*691 sb_8__0_\.mux_top_track_46\.sky130_fd_sc_hd__mux2_1_2_X
*692 sb_8__0_\.mux_top_track_48\.out
*693 sb_8__0_\.mux_top_track_48\.sky130_fd_sc_hd__mux2_1_0_X
*694 sb_8__0_\.mux_top_track_48\.sky130_fd_sc_hd__mux2_1_1_X
*695 sb_8__0_\.mux_top_track_48\.sky130_fd_sc_hd__mux2_1_2_X
*696 sb_8__0_\.mux_top_track_50\.out
*697 sb_8__0_\.mux_top_track_50\.sky130_fd_sc_hd__mux2_1_0_X
*698 sb_8__0_\.mux_top_track_50\.sky130_fd_sc_hd__mux2_1_1_X
*699 sb_8__0_\.mux_top_track_50\.sky130_fd_sc_hd__mux2_1_2_X
*700 sb_8__0_\.mux_top_track_6\.out
*701 sb_8__0_\.mux_top_track_6\.sky130_fd_sc_hd__mux2_1_0_X
*702 sb_8__0_\.mux_top_track_6\.sky130_fd_sc_hd__mux2_1_1_X
*703 sb_8__0_\.mux_top_track_6\.sky130_fd_sc_hd__mux2_1_2_X
*704 sb_8__0_\.mux_top_track_6\.sky130_fd_sc_hd__mux2_1_3_X
*705 sb_8__0_\.mux_top_track_6\.sky130_fd_sc_hd__mux2_1_4_X
*706 sb_8__0_\.mux_top_track_8\.out
*707 sb_8__0_\.mux_top_track_8\.sky130_fd_sc_hd__mux2_1_0_X
*708 sb_8__0_\.mux_top_track_8\.sky130_fd_sc_hd__mux2_1_1_X
*709 sb_8__0_\.mux_top_track_8\.sky130_fd_sc_hd__mux2_1_2_X
*710 sb_8__0_\.mux_top_track_8\.sky130_fd_sc_hd__mux2_1_3_X
*711 sb_8__0_\.mux_top_track_8\.sky130_fd_sc_hd__mux2_1_4_X
*712 ANTENNA_1
*713 ANTENNA_10
*714 ANTENNA_11
*715 ANTENNA_12
*716 ANTENNA_13
*717 ANTENNA_14
*718 ANTENNA_15
*719 ANTENNA_16
*720 ANTENNA_17
*721 ANTENNA_18
*722 ANTENNA_19
*723 ANTENNA_2
*724 ANTENNA_20
*725 ANTENNA_21
*726 ANTENNA_22
*727 ANTENNA_23
*728 ANTENNA_24
*729 ANTENNA_25
*730 ANTENNA_26
*731 ANTENNA_27
*732 ANTENNA_3
*733 ANTENNA_4
*734 ANTENNA_5
*735 ANTENNA_6
*736 ANTENNA_7
*737 ANTENNA_8
*738 ANTENNA_9
*739 FILLER_0_103
*740 FILLER_0_11
*741 FILLER_0_111
*742 FILLER_0_113
*743 FILLER_0_137
*744 FILLER_0_141
*745 FILLER_0_149
*746 FILLER_0_16
*747 FILLER_0_166
*748 FILLER_0_169
*749 FILLER_0_181
*750 FILLER_0_193
*751 FILLER_0_197
*752 FILLER_0_215
*753 FILLER_0_223
*754 FILLER_0_225
*755 FILLER_0_245
*756 FILLER_0_251
*757 FILLER_0_253
*758 FILLER_0_261
*759 FILLER_0_278
*760 FILLER_0_281
*761 FILLER_0_29
*762 FILLER_0_293
*763 FILLER_0_3
*764 FILLER_0_305
*765 FILLER_0_309
*766 FILLER_0_321
*767 FILLER_0_333
*768 FILLER_0_337
*769 FILLER_0_349
*770 FILLER_0_361
*771 FILLER_0_365
*772 FILLER_0_383
*773 FILLER_0_391
*774 FILLER_0_393
*775 FILLER_0_405
*776 FILLER_0_41
*777 FILLER_0_418
*778 FILLER_0_421
*779 FILLER_0_433
*780 FILLER_0_445
*781 FILLER_0_449
*782 FILLER_0_461
*783 FILLER_0_473
*784 FILLER_0_477
*785 FILLER_0_485
*786 FILLER_0_497
*787 FILLER_0_503
*788 FILLER_0_505
*789 FILLER_0_517
*790 FILLER_0_525
*791 FILLER_0_53
*792 FILLER_0_57
*793 FILLER_0_75
*794 FILLER_0_83
*795 FILLER_0_85
*796 FILLER_10_121
*797 FILLER_10_129
*798 FILLER_10_135
*799 FILLER_10_139
*800 FILLER_10_141
*801 FILLER_10_15
*802 FILLER_10_153
*803 FILLER_10_165
*804 FILLER_10_177
*805 FILLER_10_189
*806 FILLER_10_195
*807 FILLER_10_197
*808 FILLER_10_209
*809 FILLER_10_221
*810 FILLER_10_233
*811 FILLER_10_245
*812 FILLER_10_251
*813 FILLER_10_253
*814 FILLER_10_265
*815 FILLER_10_27
*816 FILLER_10_277
*817 FILLER_10_289
*818 FILLER_10_29
*819 FILLER_10_3
*820 FILLER_10_301
*821 FILLER_10_307
*822 FILLER_10_309
*823 FILLER_10_321
*824 FILLER_10_333
*825 FILLER_10_345
*826 FILLER_10_357
*827 FILLER_10_363
*828 FILLER_10_365
*829 FILLER_10_377
*830 FILLER_10_389
*831 FILLER_10_401
*832 FILLER_10_41
*833 FILLER_10_413
*834 FILLER_10_419
*835 FILLER_10_421
*836 FILLER_10_433
*837 FILLER_10_445
*838 FILLER_10_457
*839 FILLER_10_469
*840 FILLER_10_475
*841 FILLER_10_477
*842 FILLER_10_489
*843 FILLER_10_501
*844 FILLER_10_513
*845 FILLER_10_525
*846 FILLER_10_53
*847 FILLER_10_65
*848 FILLER_10_77
*849 FILLER_10_83
*850 FILLER_10_85
*851 FILLER_10_97
*852 FILLER_11_105
*853 FILLER_11_111
*854 FILLER_11_113
*855 FILLER_11_125
*856 FILLER_11_137
*857 FILLER_11_149
*858 FILLER_11_161
*859 FILLER_11_167
*860 FILLER_11_169
*861 FILLER_11_181
*862 FILLER_11_193
*863 FILLER_11_20
*864 FILLER_11_205
*865 FILLER_11_217
*866 FILLER_11_223
*867 FILLER_11_225
*868 FILLER_11_237
*869 FILLER_11_249
*870 FILLER_11_261
*871 FILLER_11_273
*872 FILLER_11_279
*873 FILLER_11_281
*874 FILLER_11_293
*875 FILLER_11_3
*876 FILLER_11_305
*877 FILLER_11_317
*878 FILLER_11_32
*879 FILLER_11_329
*880 FILLER_11_335
*881 FILLER_11_337
*882 FILLER_11_349
*883 FILLER_11_361
*884 FILLER_11_373
*885 FILLER_11_385
*886 FILLER_11_391
*887 FILLER_11_393
*888 FILLER_11_405
*889 FILLER_11_417
*890 FILLER_11_429
*891 FILLER_11_44
*892 FILLER_11_441
*893 FILLER_11_447
*894 FILLER_11_449
*895 FILLER_11_461
*896 FILLER_11_473
*897 FILLER_11_485
*898 FILLER_11_497
*899 FILLER_11_503
*900 FILLER_11_505
*901 FILLER_11_517
*902 FILLER_11_525
*903 FILLER_11_57
*904 FILLER_11_69
*905 FILLER_11_8
*906 FILLER_11_81
*907 FILLER_11_93
*908 FILLER_12_109
*909 FILLER_12_121
*910 FILLER_12_133
*911 FILLER_12_139
*912 FILLER_12_141
*913 FILLER_12_153
*914 FILLER_12_165
*915 FILLER_12_177
*916 FILLER_12_185
*917 FILLER_12_190
*918 FILLER_12_197
*919 FILLER_12_20
*920 FILLER_12_209
*921 FILLER_12_221
*922 FILLER_12_233
*923 FILLER_12_245
*924 FILLER_12_251
*925 FILLER_12_253