*SPEF "ieee 1481-1999"
*DESIGN "bottom_right_tile"
*DATE "11:11:11 Fri 11 11, 1111"
*VENDOR "OpenRCX"
*PROGRAM "Parallel Extraction"
*VERSION "1.0"
*DESIGN_FLOW "NAME_SCOPE LOCAL" "PIN_CAP NONE"
*DIVIDER /
*DELIMITER :
*BUS_DELIMITER []
*T_UNIT 1 NS
*C_UNIT 1 PF
*R_UNIT 1 OHM
*L_UNIT 1 HENRY

*NAME_MAP
*3 ccff_head
*4 ccff_head_1
*5 ccff_tail
*6 ccff_tail_0
*7 chanx_left_in[0]
*8 chanx_left_in[10]
*9 chanx_left_in[11]
*10 chanx_left_in[12]
*11 chanx_left_in[13]
*12 chanx_left_in[14]
*13 chanx_left_in[15]
*14 chanx_left_in[16]
*15 chanx_left_in[17]
*16 chanx_left_in[18]
*17 chanx_left_in[19]
*18 chanx_left_in[1]
*19 chanx_left_in[20]
*20 chanx_left_in[21]
*21 chanx_left_in[22]
*22 chanx_left_in[23]
*23 chanx_left_in[24]
*24 chanx_left_in[25]
*25 chanx_left_in[26]
*26 chanx_left_in[27]
*27 chanx_left_in[28]
*28 chanx_left_in[29]
*29 chanx_left_in[2]
*30 chanx_left_in[3]
*31 chanx_left_in[4]
*32 chanx_left_in[5]
*33 chanx_left_in[6]
*34 chanx_left_in[7]
*35 chanx_left_in[8]
*36 chanx_left_in[9]
*37 chanx_left_out[0]
*38 chanx_left_out[10]
*39 chanx_left_out[11]
*40 chanx_left_out[12]
*41 chanx_left_out[13]
*42 chanx_left_out[14]
*43 chanx_left_out[15]
*44 chanx_left_out[16]
*45 chanx_left_out[17]
*46 chanx_left_out[18]
*47 chanx_left_out[19]
*48 chanx_left_out[1]
*49 chanx_left_out[20]
*50 chanx_left_out[21]
*51 chanx_left_out[22]
*52 chanx_left_out[23]
*53 chanx_left_out[24]
*54 chanx_left_out[25]
*55 chanx_left_out[26]
*56 chanx_left_out[27]
*57 chanx_left_out[28]
*58 chanx_left_out[29]
*59 chanx_left_out[2]
*60 chanx_left_out[3]
*61 chanx_left_out[4]
*62 chanx_left_out[5]
*63 chanx_left_out[6]
*64 chanx_left_out[7]
*65 chanx_left_out[8]
*66 chanx_left_out[9]
*67 chany_top_in[0]
*68 chany_top_in[10]
*69 chany_top_in[11]
*70 chany_top_in[12]
*71 chany_top_in[13]
*72 chany_top_in[14]
*73 chany_top_in[15]
*74 chany_top_in[16]
*75 chany_top_in[17]
*76 chany_top_in[18]
*77 chany_top_in[19]
*78 chany_top_in[1]
*79 chany_top_in[20]
*80 chany_top_in[21]
*81 chany_top_in[22]
*82 chany_top_in[23]
*83 chany_top_in[24]
*84 chany_top_in[25]
*85 chany_top_in[26]
*86 chany_top_in[27]
*87 chany_top_in[28]
*88 chany_top_in[29]
*89 chany_top_in[2]
*90 chany_top_in[3]
*91 chany_top_in[4]
*92 chany_top_in[5]
*93 chany_top_in[6]
*94 chany_top_in[7]
*95 chany_top_in[8]
*96 chany_top_in[9]
*97 chany_top_out[0]
*98 chany_top_out[10]
*99 chany_top_out[11]
*100 chany_top_out[12]
*101 chany_top_out[13]
*102 chany_top_out[14]
*103 chany_top_out[15]
*104 chany_top_out[16]
*105 chany_top_out[17]
*106 chany_top_out[18]
*107 chany_top_out[19]
*108 chany_top_out[1]
*109 chany_top_out[20]
*110 chany_top_out[21]
*111 chany_top_out[22]
*112 chany_top_out[23]
*113 chany_top_out[24]
*114 chany_top_out[25]
*115 chany_top_out[26]
*116 chany_top_out[27]
*117 chany_top_out[28]
*118 chany_top_out[29]
*119 chany_top_out[2]
*120 chany_top_out[3]
*121 chany_top_out[4]
*122 chany_top_out[5]
*123 chany_top_out[6]
*124 chany_top_out[7]
*125 chany_top_out[8]
*126 chany_top_out[9]
*127 gfpga_pad_io_soc_dir[0]
*128 gfpga_pad_io_soc_dir[1]
*129 gfpga_pad_io_soc_dir[2]
*130 gfpga_pad_io_soc_dir[3]
*131 gfpga_pad_io_soc_in[0]
*132 gfpga_pad_io_soc_in[1]
*133 gfpga_pad_io_soc_in[2]
*134 gfpga_pad_io_soc_in[3]
*135 gfpga_pad_io_soc_out[0]
*136 gfpga_pad_io_soc_out[1]
*137 gfpga_pad_io_soc_out[2]
*138 gfpga_pad_io_soc_out[3]
*139 isol_n
*140 prog_clk
*141 prog_reset_top_in
*142 reset_top_in
*143 test_enable_top_in
*144 top_left_grid_right_width_0_height_0_subtile_0__pin_O_10_
*145 top_left_grid_right_width_0_height_0_subtile_0__pin_O_11_
*146 top_left_grid_right_width_0_height_0_subtile_0__pin_O_12_
*147 top_left_grid_right_width_0_height_0_subtile_0__pin_O_13_
*148 top_left_grid_right_width_0_height_0_subtile_0__pin_O_14_
*149 top_left_grid_right_width_0_height_0_subtile_0__pin_O_15_
*150 top_left_grid_right_width_0_height_0_subtile_0__pin_O_8_
*151 top_left_grid_right_width_0_height_0_subtile_0__pin_O_9_
*152 top_right_grid_left_width_0_height_0_subtile_0__pin_inpad_0_
*153 top_right_grid_left_width_0_height_0_subtile_1__pin_inpad_0_
*154 top_right_grid_left_width_0_height_0_subtile_2__pin_inpad_0_
*155 top_right_grid_left_width_0_height_0_subtile_3__pin_inpad_0_
*156 top_width_0_height_0_subtile_0__pin_inpad_0_
*157 top_width_0_height_0_subtile_1__pin_inpad_0_
*158 top_width_0_height_0_subtile_2__pin_inpad_0_
*159 top_width_0_height_0_subtile_3__pin_inpad_0_
*160 cbx_8__0_\.bottom_grid_top_width_0_height_0_subtile_0__pin_outpad_0_
*161 cbx_8__0_\.bottom_grid_top_width_0_height_0_subtile_1__pin_outpad_0_
*162 cbx_8__0_\.bottom_grid_top_width_0_height_0_subtile_2__pin_outpad_0_
*163 cbx_8__0_\.bottom_grid_top_width_0_height_0_subtile_3__pin_outpad_0_
*164 cbx_8__0_\.cbx_8__0_\.ccff_head
*165 cbx_8__0_\.cbx_8__0_\.mem_top_ipin_0\.ccff_tail
*166 cbx_8__0_\.cbx_8__0_\.mem_top_ipin_0\.mem_out\[0\]
*167 cbx_8__0_\.cbx_8__0_\.mem_top_ipin_0\.mem_out\[1\]
*168 cbx_8__0_\.cbx_8__0_\.mem_top_ipin_0\.mem_out\[2\]
*169 cbx_8__0_\.cbx_8__0_\.mem_top_ipin_1\.ccff_tail
*170 cbx_8__0_\.cbx_8__0_\.mem_top_ipin_1\.mem_out\[0\]
*171 cbx_8__0_\.cbx_8__0_\.mem_top_ipin_1\.mem_out\[1\]
*172 cbx_8__0_\.cbx_8__0_\.mem_top_ipin_1\.mem_out\[2\]
*173 cbx_8__0_\.cbx_8__0_\.mem_top_ipin_2\.ccff_tail
*174 cbx_8__0_\.cbx_8__0_\.mem_top_ipin_2\.mem_out\[0\]
*175 cbx_8__0_\.cbx_8__0_\.mem_top_ipin_2\.mem_out\[1\]
*176 cbx_8__0_\.cbx_8__0_\.mem_top_ipin_2\.mem_out\[2\]
*177 cbx_8__0_\.cbx_8__0_\.mem_top_ipin_3\.mem_out\[0\]
*178 cbx_8__0_\.cbx_8__0_\.mem_top_ipin_3\.mem_out\[1\]
*179 cbx_8__0_\.cbx_8__0_\.mem_top_ipin_3\.mem_out\[2\]
*180 cbx_8__0_\.cbx_8__0_\.mux_top_ipin_0\.sky130_fd_sc_hd__mux2_1_0_X
*181 cbx_8__0_\.cbx_8__0_\.mux_top_ipin_0\.sky130_fd_sc_hd__mux2_1_10_X
*182 cbx_8__0_\.cbx_8__0_\.mux_top_ipin_0\.sky130_fd_sc_hd__mux2_1_11_X
*183 cbx_8__0_\.cbx_8__0_\.mux_top_ipin_0\.sky130_fd_sc_hd__mux2_1_1_X
*184 cbx_8__0_\.cbx_8__0_\.mux_top_ipin_0\.sky130_fd_sc_hd__mux2_1_2_X
*185 cbx_8__0_\.cbx_8__0_\.mux_top_ipin_0\.sky130_fd_sc_hd__mux2_1_3_X
*186 cbx_8__0_\.cbx_8__0_\.mux_top_ipin_0\.sky130_fd_sc_hd__mux2_1_4_X
*187 cbx_8__0_\.cbx_8__0_\.mux_top_ipin_0\.sky130_fd_sc_hd__mux2_1_5_X
*188 cbx_8__0_\.cbx_8__0_\.mux_top_ipin_0\.sky130_fd_sc_hd__mux2_1_6_X
*189 cbx_8__0_\.cbx_8__0_\.mux_top_ipin_0\.sky130_fd_sc_hd__mux2_1_7_X
*190 cbx_8__0_\.cbx_8__0_\.mux_top_ipin_0\.sky130_fd_sc_hd__mux2_1_8_X
*191 cbx_8__0_\.cbx_8__0_\.mux_top_ipin_0\.sky130_fd_sc_hd__mux2_1_9_X
*192 cbx_8__0_\.cbx_8__0_\.mux_top_ipin_1\.sky130_fd_sc_hd__mux2_1_0_X
*193 cbx_8__0_\.cbx_8__0_\.mux_top_ipin_1\.sky130_fd_sc_hd__mux2_1_10_X
*194 cbx_8__0_\.cbx_8__0_\.mux_top_ipin_1\.sky130_fd_sc_hd__mux2_1_11_X
*195 cbx_8__0_\.cbx_8__0_\.mux_top_ipin_1\.sky130_fd_sc_hd__mux2_1_1_X
*196 cbx_8__0_\.cbx_8__0_\.mux_top_ipin_1\.sky130_fd_sc_hd__mux2_1_2_X
*197 cbx_8__0_\.cbx_8__0_\.mux_top_ipin_1\.sky130_fd_sc_hd__mux2_1_3_X
*198 cbx_8__0_\.cbx_8__0_\.mux_top_ipin_1\.sky130_fd_sc_hd__mux2_1_4_X
*199 cbx_8__0_\.cbx_8__0_\.mux_top_ipin_1\.sky130_fd_sc_hd__mux2_1_5_X
*200 cbx_8__0_\.cbx_8__0_\.mux_top_ipin_1\.sky130_fd_sc_hd__mux2_1_6_X
*201 cbx_8__0_\.cbx_8__0_\.mux_top_ipin_1\.sky130_fd_sc_hd__mux2_1_7_X
*202 cbx_8__0_\.cbx_8__0_\.mux_top_ipin_1\.sky130_fd_sc_hd__mux2_1_8_X
*203 cbx_8__0_\.cbx_8__0_\.mux_top_ipin_1\.sky130_fd_sc_hd__mux2_1_9_X
*204 cbx_8__0_\.cbx_8__0_\.mux_top_ipin_2\.sky130_fd_sc_hd__mux2_1_0_X
*205 cbx_8__0_\.cbx_8__0_\.mux_top_ipin_2\.sky130_fd_sc_hd__mux2_1_10_X
*206 cbx_8__0_\.cbx_8__0_\.mux_top_ipin_2\.sky130_fd_sc_hd__mux2_1_11_X
*207 cbx_8__0_\.cbx_8__0_\.mux_top_ipin_2\.sky130_fd_sc_hd__mux2_1_1_X
*208 cbx_8__0_\.cbx_8__0_\.mux_top_ipin_2\.sky130_fd_sc_hd__mux2_1_2_X
*209 cbx_8__0_\.cbx_8__0_\.mux_top_ipin_2\.sky130_fd_sc_hd__mux2_1_3_X
*210 cbx_8__0_\.cbx_8__0_\.mux_top_ipin_2\.sky130_fd_sc_hd__mux2_1_4_X
*211 cbx_8__0_\.cbx_8__0_\.mux_top_ipin_2\.sky130_fd_sc_hd__mux2_1_5_X
*212 cbx_8__0_\.cbx_8__0_\.mux_top_ipin_2\.sky130_fd_sc_hd__mux2_1_6_X
*213 cbx_8__0_\.cbx_8__0_\.mux_top_ipin_2\.sky130_fd_sc_hd__mux2_1_7_X
*214 cbx_8__0_\.cbx_8__0_\.mux_top_ipin_2\.sky130_fd_sc_hd__mux2_1_8_X
*215 cbx_8__0_\.cbx_8__0_\.mux_top_ipin_2\.sky130_fd_sc_hd__mux2_1_9_X
*216 cbx_8__0_\.cbx_8__0_\.mux_top_ipin_3\.sky130_fd_sc_hd__mux2_1_0_X
*217 cbx_8__0_\.cbx_8__0_\.mux_top_ipin_3\.sky130_fd_sc_hd__mux2_1_10_X
*218 cbx_8__0_\.cbx_8__0_\.mux_top_ipin_3\.sky130_fd_sc_hd__mux2_1_11_X
*219 cbx_8__0_\.cbx_8__0_\.mux_top_ipin_3\.sky130_fd_sc_hd__mux2_1_1_X
*220 cbx_8__0_\.cbx_8__0_\.mux_top_ipin_3\.sky130_fd_sc_hd__mux2_1_2_X
*221 cbx_8__0_\.cbx_8__0_\.mux_top_ipin_3\.sky130_fd_sc_hd__mux2_1_3_X
*222 cbx_8__0_\.cbx_8__0_\.mux_top_ipin_3\.sky130_fd_sc_hd__mux2_1_4_X
*223 cbx_8__0_\.cbx_8__0_\.mux_top_ipin_3\.sky130_fd_sc_hd__mux2_1_5_X
*224 cbx_8__0_\.cbx_8__0_\.mux_top_ipin_3\.sky130_fd_sc_hd__mux2_1_6_X
*225 cbx_8__0_\.cbx_8__0_\.mux_top_ipin_3\.sky130_fd_sc_hd__mux2_1_7_X
*226 cbx_8__0_\.cbx_8__0_\.mux_top_ipin_3\.sky130_fd_sc_hd__mux2_1_8_X
*227 cbx_8__0_\.cbx_8__0_\.mux_top_ipin_3\.sky130_fd_sc_hd__mux2_1_9_X
*228 cbx_8__0_\.grid_io_bottom_bottom_8__0_\.logical_tile_io_mode_io__0\.ccff_tail
*229 cbx_8__0_\.grid_io_bottom_bottom_8__0_\.logical_tile_io_mode_io__0\.gfpga_pad_io_soc_dir
*230 cbx_8__0_\.grid_io_bottom_bottom_8__0_\.logical_tile_io_mode_io__0\.gfpga_pad_io_soc_out
*231 cbx_8__0_\.grid_io_bottom_bottom_8__0_\.logical_tile_io_mode_io__0\.logical_tile_io_mode_physical__iopad_0\.io_0_\.SOC_DIR_N
*232 cbx_8__0_\.grid_io_bottom_bottom_8__0_\.logical_tile_io_mode_io__1\.ccff_tail
*233 cbx_8__0_\.grid_io_bottom_bottom_8__0_\.logical_tile_io_mode_io__1\.gfpga_pad_io_soc_dir
*234 cbx_8__0_\.grid_io_bottom_bottom_8__0_\.logical_tile_io_mode_io__1\.gfpga_pad_io_soc_out
*235 cbx_8__0_\.grid_io_bottom_bottom_8__0_\.logical_tile_io_mode_io__1\.logical_tile_io_mode_physical__iopad_0\.io_0_\.SOC_DIR_N
*236 cbx_8__0_\.grid_io_bottom_bottom_8__0_\.logical_tile_io_mode_io__2\.ccff_tail
*237 cbx_8__0_\.grid_io_bottom_bottom_8__0_\.logical_tile_io_mode_io__2\.gfpga_pad_io_soc_dir
*238 cbx_8__0_\.grid_io_bottom_bottom_8__0_\.logical_tile_io_mode_io__2\.gfpga_pad_io_soc_out
*239 cbx_8__0_\.grid_io_bottom_bottom_8__0_\.logical_tile_io_mode_io__2\.logical_tile_io_mode_physical__iopad_0\.io_0_\.SOC_DIR_N
*240 cbx_8__0_\.grid_io_bottom_bottom_8__0_\.logical_tile_io_mode_io__3\.gfpga_pad_io_soc_dir
*241 cbx_8__0_\.grid_io_bottom_bottom_8__0_\.logical_tile_io_mode_io__3\.gfpga_pad_io_soc_out
*242 cbx_8__0_\.grid_io_bottom_bottom_8__0_\.logical_tile_io_mode_io__3\.logical_tile_io_mode_physical__iopad_0\.io_0_\.SOC_DIR_N
*243 clknet_0_prog_clk
*244 clknet_4_0_0_prog_clk
*245 clknet_4_10_0_prog_clk
*246 clknet_4_11_0_prog_clk
*247 clknet_4_12_0_prog_clk
*248 clknet_4_13_0_prog_clk
*249 clknet_4_14_0_prog_clk
*250 clknet_4_15_0_prog_clk
*251 clknet_4_1_0_prog_clk
*252 clknet_4_2_0_prog_clk
*253 clknet_4_3_0_prog_clk
*254 clknet_4_4_0_prog_clk
*255 clknet_4_5_0_prog_clk
*256 clknet_4_6_0_prog_clk
*257 clknet_4_7_0_prog_clk
*258 clknet_4_8_0_prog_clk
*259 clknet_4_9_0_prog_clk
*260 net1
*261 net10
*262 net100
*263 net101
*264 net102
*265 net103
*266 net104
*267 net105
*268 net106
*269 net107
*270 net108
*271 net109
*272 net11
*273 net110
*274 net111
*275 net112
*276 net113
*277 net114
*278 net115
*279 net116
*280 net117
*281 net118
*282 net119
*283 net12
*284 net120
*285 net121
*286 net122
*287 net123
*288 net124
*289 net125
*290 net126
*291 net127
*292 net128
*293 net129
*294 net13
*295 net130
*296 net131
*297 net132
*298 net133
*299 net134
*300 net135
*301 net136
*302 net137
*303 net138
*304 net139
*305 net14
*306 net140
*307 net141
*308 net142
*309 net143
*310 net144
*311 net145
*312 net146
*313 net147
*314 net148
*315 net149
*316 net15
*317 net150
*318 net151
*319 net152
*320 net153
*321 net154
*322 net155
*323 net156
*324 net157
*325 net158
*326 net159
*327 net16
*328 net160
*329 net161
*330 net162
*331 net163
*332 net164
*333 net165
*334 net166
*335 net167
*336 net168
*337 net169
*338 net17
*339 net170
*340 net171
*341 net172
*342 net173
*343 net174
*344 net175
*345 net176
*346 net177
*347 net178
*348 net179
*349 net18
*350 net180
*351 net181
*352 net182
*353 net183
*354 net184
*355 net185
*356 net186
*357 net187
*358 net188
*359 net189
*360 net19
*361 net190
*362 net191
*363 net192
*364 net193
*365 net194
*366 net195
*367 net196
*368 net197
*369 net198
*370 net2
*371 net20
*372 net21
*373 net22
*374 net23
*375 net24
*376 net25
*377 net26
*378 net27
*379 net28
*380 net29
*381 net3
*382 net30
*383 net31
*384 net32
*385 net33
*386 net34
*387 net35
*388 net36
*389 net37
*390 net38
*391 net39
*392 net4
*393 net40
*394 net41
*395 net42
*396 net43
*397 net44
*398 net45
*399 net46
*400 net47
*401 net48
*402 net49
*403 net5
*404 net50
*405 net51
*406 net52
*407 net53
*408 net54
*409 net55
*410 net56
*411 net57
*412 net58
*413 net59
*414 net6
*415 net60
*416 net61
*417 net62
*418 net63
*419 net64
*420 net65
*421 net66
*422 net67
*423 net68
*424 net69
*425 net7
*426 net70
*427 net71
*428 net72
*429 net73
*430 net74
*431 net75
*432 net76
*433 net77
*434 net78
*435 net79
*436 net8
*437 net80
*438 net81
*439 net82
*440 net83
*441 net84
*442 net85
*443 net86
*444 net87
*445 net88
*446 net89
*447 net9
*448 net90
*449 net91
*450 net92
*451 net93
*452 net94
*453 net95
*454 net96
*455 net97
*456 net98
*457 net99
*458 sb_8__0_\.mem_left_track_1\.ccff_head
*459 sb_8__0_\.mem_left_track_1\.ccff_tail
*460 sb_8__0_\.mem_left_track_1\.mem_out\[0\]
*461 sb_8__0_\.mem_left_track_11\.ccff_head
*462 sb_8__0_\.mem_left_track_11\.ccff_tail
*463 sb_8__0_\.mem_left_track_11\.mem_out\[0\]
*464 sb_8__0_\.mem_left_track_13\.ccff_tail
*465 sb_8__0_\.mem_left_track_13\.mem_out\[0\]
*466 sb_8__0_\.mem_left_track_15\.ccff_tail
*467 sb_8__0_\.mem_left_track_15\.mem_out\[0\]
*468 sb_8__0_\.mem_left_track_17\.ccff_tail
*469 sb_8__0_\.mem_left_track_17\.mem_out\[0\]
*470 sb_8__0_\.mem_left_track_19\.ccff_tail
*471 sb_8__0_\.mem_left_track_19\.mem_out\[0\]
*472 sb_8__0_\.mem_left_track_29\.ccff_tail
*473 sb_8__0_\.mem_left_track_29\.mem_out\[0\]
*474 sb_8__0_\.mem_left_track_3\.ccff_tail
*475 sb_8__0_\.mem_left_track_3\.mem_out\[0\]
*476 sb_8__0_\.mem_left_track_31\.ccff_tail
*477 sb_8__0_\.mem_left_track_31\.mem_out\[0\]
*478 sb_8__0_\.mem_left_track_33\.ccff_tail
*479 sb_8__0_\.mem_left_track_33\.mem_out\[0\]
*480 sb_8__0_\.mem_left_track_35\.ccff_tail
*481 sb_8__0_\.mem_left_track_35\.mem_out\[0\]
*482 sb_8__0_\.mem_left_track_45\.ccff_tail
*483 sb_8__0_\.mem_left_track_45\.mem_out\[0\]
*484 sb_8__0_\.mem_left_track_47\.ccff_tail
*485 sb_8__0_\.mem_left_track_47\.mem_out\[0\]
*486 sb_8__0_\.mem_left_track_49\.ccff_tail
*487 sb_8__0_\.mem_left_track_49\.mem_out\[0\]
*488 sb_8__0_\.mem_left_track_5\.ccff_tail
*489 sb_8__0_\.mem_left_track_5\.mem_out\[0\]
*490 sb_8__0_\.mem_left_track_51\.mem_out\[0\]
*491 sb_8__0_\.mem_left_track_7\.ccff_tail
*492 sb_8__0_\.mem_left_track_7\.mem_out\[0\]
*493 sb_8__0_\.mem_left_track_9\.mem_out\[0\]
*494 sb_8__0_\.mem_top_track_0\.ccff_tail
*495 sb_8__0_\.mem_top_track_0\.mem_out\[0\]
*496 sb_8__0_\.mem_top_track_0\.mem_out\[1\]
*497 sb_8__0_\.mem_top_track_10\.ccff_head
*498 sb_8__0_\.mem_top_track_10\.ccff_tail
*499 sb_8__0_\.mem_top_track_10\.mem_out\[0\]
*500 sb_8__0_\.mem_top_track_10\.mem_out\[1\]
*501 sb_8__0_\.mem_top_track_12\.ccff_tail
*502 sb_8__0_\.mem_top_track_12\.mem_out\[0\]
*503 sb_8__0_\.mem_top_track_14\.ccff_tail
*504 sb_8__0_\.mem_top_track_14\.mem_out\[0\]
*505 sb_8__0_\.mem_top_track_16\.ccff_tail
*506 sb_8__0_\.mem_top_track_16\.mem_out\[0\]
*507 sb_8__0_\.mem_top_track_18\.ccff_tail
*508 sb_8__0_\.mem_top_track_18\.mem_out\[0\]
*509 sb_8__0_\.mem_top_track_2\.ccff_tail
*510 sb_8__0_\.mem_top_track_2\.mem_out\[0\]
*511 sb_8__0_\.mem_top_track_2\.mem_out\[1\]
*512 sb_8__0_\.mem_top_track_20\.ccff_tail
*513 sb_8__0_\.mem_top_track_20\.mem_out\[0\]
*514 sb_8__0_\.mem_top_track_22\.ccff_tail
*515 sb_8__0_\.mem_top_track_22\.mem_out\[0\]
*516 sb_8__0_\.mem_top_track_24\.ccff_tail
*517 sb_8__0_\.mem_top_track_24\.mem_out\[0\]
*518 sb_8__0_\.mem_top_track_26\.ccff_tail
*519 sb_8__0_\.mem_top_track_26\.mem_out\[0\]
*520 sb_8__0_\.mem_top_track_28\.ccff_tail
*521 sb_8__0_\.mem_top_track_28\.mem_out\[0\]
*522 sb_8__0_\.mem_top_track_30\.ccff_tail
*523 sb_8__0_\.mem_top_track_30\.mem_out\[0\]
*524 sb_8__0_\.mem_top_track_32\.ccff_tail
*525 sb_8__0_\.mem_top_track_32\.mem_out\[0\]
*526 sb_8__0_\.mem_top_track_34\.ccff_tail
*527 sb_8__0_\.mem_top_track_34\.mem_out\[0\]
*528 sb_8__0_\.mem_top_track_36\.ccff_tail
*529 sb_8__0_\.mem_top_track_36\.mem_out\[0\]
*530 sb_8__0_\.mem_top_track_38\.ccff_tail
*531 sb_8__0_\.mem_top_track_38\.mem_out\[0\]
*532 sb_8__0_\.mem_top_track_4\.ccff_tail
*533 sb_8__0_\.mem_top_track_4\.mem_out\[0\]
*534 sb_8__0_\.mem_top_track_4\.mem_out\[1\]
*535 sb_8__0_\.mem_top_track_40\.ccff_tail
*536 sb_8__0_\.mem_top_track_40\.mem_out\[0\]
*537 sb_8__0_\.mem_top_track_42\.ccff_tail
*538 sb_8__0_\.mem_top_track_42\.mem_out\[0\]
*539 sb_8__0_\.mem_top_track_44\.ccff_tail
*540 sb_8__0_\.mem_top_track_44\.mem_out\[0\]
*541 sb_8__0_\.mem_top_track_46\.ccff_tail
*542 sb_8__0_\.mem_top_track_46\.mem_out\[0\]
*543 sb_8__0_\.mem_top_track_48\.ccff_tail
*544 sb_8__0_\.mem_top_track_48\.mem_out\[0\]
*545 sb_8__0_\.mem_top_track_50\.mem_out\[0\]
*546 sb_8__0_\.mem_top_track_6\.ccff_tail
*547 sb_8__0_\.mem_top_track_6\.mem_out\[0\]
*548 sb_8__0_\.mem_top_track_6\.mem_out\[1\]
*549 sb_8__0_\.mem_top_track_8\.mem_out\[0\]
*550 sb_8__0_\.mem_top_track_8\.mem_out\[1\]
*551 sb_8__0_\.mux_left_track_1\.out
*552 sb_8__0_\.mux_left_track_1\.sky130_fd_sc_hd__mux2_1_0_X
*553 sb_8__0_\.mux_left_track_1\.sky130_fd_sc_hd__mux2_1_1_X
*554 sb_8__0_\.mux_left_track_1\.sky130_fd_sc_hd__mux2_1_2_X
*555 sb_8__0_\.mux_left_track_11\.out
*556 sb_8__0_\.mux_left_track_11\.sky130_fd_sc_hd__mux2_1_0_X
*557 sb_8__0_\.mux_left_track_11\.sky130_fd_sc_hd__mux2_1_1_X
*558 sb_8__0_\.mux_left_track_13\.out
*559 sb_8__0_\.mux_left_track_13\.sky130_fd_sc_hd__mux2_1_0_X
*560 sb_8__0_\.mux_left_track_13\.sky130_fd_sc_hd__mux2_1_1_X
*561 sb_8__0_\.mux_left_track_15\.out
*562 sb_8__0_\.mux_left_track_15\.sky130_fd_sc_hd__mux2_1_0_X
*563 sb_8__0_\.mux_left_track_15\.sky130_fd_sc_hd__mux2_1_1_X
*564 sb_8__0_\.mux_left_track_17\.out
*565 sb_8__0_\.mux_left_track_17\.sky130_fd_sc_hd__mux2_1_0_X
*566 sb_8__0_\.mux_left_track_17\.sky130_fd_sc_hd__mux2_1_1_X
*567 sb_8__0_\.mux_left_track_19\.out
*568 sb_8__0_\.mux_left_track_19\.sky130_fd_sc_hd__mux2_1_0_X
*569 sb_8__0_\.mux_left_track_19\.sky130_fd_sc_hd__mux2_1_1_X
*570 sb_8__0_\.mux_left_track_29\.out
*571 sb_8__0_\.mux_left_track_29\.sky130_fd_sc_hd__mux2_1_0_X
*572 sb_8__0_\.mux_left_track_29\.sky130_fd_sc_hd__mux2_1_1_X
*573 sb_8__0_\.mux_left_track_3\.out
*574 sb_8__0_\.mux_left_track_3\.sky130_fd_sc_hd__mux2_1_0_X
*575 sb_8__0_\.mux_left_track_3\.sky130_fd_sc_hd__mux2_1_1_X
*576 sb_8__0_\.mux_left_track_31\.out
*577 sb_8__0_\.mux_left_track_31\.sky130_fd_sc_hd__mux2_1_0_X
*578 sb_8__0_\.mux_left_track_31\.sky130_fd_sc_hd__mux2_1_1_X
*579 sb_8__0_\.mux_left_track_33\.out
*580 sb_8__0_\.mux_left_track_33\.sky130_fd_sc_hd__mux2_1_0_X
*581 sb_8__0_\.mux_left_track_33\.sky130_fd_sc_hd__mux2_1_1_X
*582 sb_8__0_\.mux_left_track_35\.out
*583 sb_8__0_\.mux_left_track_35\.sky130_fd_sc_hd__mux2_1_0_X
*584 sb_8__0_\.mux_left_track_35\.sky130_fd_sc_hd__mux2_1_1_X
*585 sb_8__0_\.mux_left_track_45\.out
*586 sb_8__0_\.mux_left_track_45\.sky130_fd_sc_hd__mux2_1_0_X
*587 sb_8__0_\.mux_left_track_45\.sky130_fd_sc_hd__mux2_1_1_X
*588 sb_8__0_\.mux_left_track_47\.out
*589 sb_8__0_\.mux_left_track_47\.sky130_fd_sc_hd__mux2_1_0_X
*590 sb_8__0_\.mux_left_track_47\.sky130_fd_sc_hd__mux2_1_1_X
*591 sb_8__0_\.mux_left_track_49\.out
*592 sb_8__0_\.mux_left_track_49\.sky130_fd_sc_hd__mux2_1_0_X
*593 sb_8__0_\.mux_left_track_49\.sky130_fd_sc_hd__mux2_1_1_X
*594 sb_8__0_\.mux_left_track_5\.out
*595 sb_8__0_\.mux_left_track_5\.sky130_fd_sc_hd__mux2_1_0_X
*596 sb_8__0_\.mux_left_track_5\.sky130_fd_sc_hd__mux2_1_1_X
*597 sb_8__0_\.mux_left_track_51\.out
*598 sb_8__0_\.mux_left_track_51\.sky130_fd_sc_hd__mux2_1_0_X
*599 sb_8__0_\.mux_left_track_51\.sky130_fd_sc_hd__mux2_1_1_X
*600 sb_8__0_\.mux_left_track_7\.out
*601 sb_8__0_\.mux_left_track_7\.sky130_fd_sc_hd__mux2_1_0_X
*602 sb_8__0_\.mux_left_track_7\.sky130_fd_sc_hd__mux2_1_1_X
*603 sb_8__0_\.mux_left_track_7\.sky130_fd_sc_hd__mux2_1_2_X
*604 sb_8__0_\.mux_left_track_9\.out
*605 sb_8__0_\.mux_left_track_9\.sky130_fd_sc_hd__mux2_1_0_X
*606 sb_8__0_\.mux_left_track_9\.sky130_fd_sc_hd__mux2_1_1_X
*607 sb_8__0_\.mux_top_track_0\.out
*608 sb_8__0_\.mux_top_track_0\.sky130_fd_sc_hd__mux2_1_0_X
*609 sb_8__0_\.mux_top_track_0\.sky130_fd_sc_hd__mux2_1_1_X
*610 sb_8__0_\.mux_top_track_0\.sky130_fd_sc_hd__mux2_1_2_X
*611 sb_8__0_\.mux_top_track_0\.sky130_fd_sc_hd__mux2_1_3_X
*612 sb_8__0_\.mux_top_track_0\.sky130_fd_sc_hd__mux2_1_4_X
*613 sb_8__0_\.mux_top_track_10\.out
*614 sb_8__0_\.mux_top_track_10\.sky130_fd_sc_hd__mux2_1_0_X
*615 sb_8__0_\.mux_top_track_10\.sky130_fd_sc_hd__mux2_1_1_X
*616 sb_8__0_\.mux_top_track_10\.sky130_fd_sc_hd__mux2_1_2_X
*617 sb_8__0_\.mux_top_track_10\.sky130_fd_sc_hd__mux2_1_3_X
*618 sb_8__0_\.mux_top_track_10\.sky130_fd_sc_hd__mux2_1_4_X
*619 sb_8__0_\.mux_top_track_12\.out
*620 sb_8__0_\.mux_top_track_12\.sky130_fd_sc_hd__mux2_1_0_X
*621 sb_8__0_\.mux_top_track_12\.sky130_fd_sc_hd__mux2_1_1_X
*622 sb_8__0_\.mux_top_track_12\.sky130_fd_sc_hd__mux2_1_2_X
*623 sb_8__0_\.mux_top_track_14\.out
*624 sb_8__0_\.mux_top_track_14\.sky130_fd_sc_hd__mux2_1_0_X
*625 sb_8__0_\.mux_top_track_14\.sky130_fd_sc_hd__mux2_1_1_X
*626 sb_8__0_\.mux_top_track_14\.sky130_fd_sc_hd__mux2_1_2_X
*627 sb_8__0_\.mux_top_track_16\.out
*628 sb_8__0_\.mux_top_track_16\.sky130_fd_sc_hd__mux2_1_0_X
*629 sb_8__0_\.mux_top_track_16\.sky130_fd_sc_hd__mux2_1_1_X
*630 sb_8__0_\.mux_top_track_16\.sky130_fd_sc_hd__mux2_1_2_X
*631 sb_8__0_\.mux_top_track_18\.out
*632 sb_8__0_\.mux_top_track_18\.sky130_fd_sc_hd__mux2_1_0_X
*633 sb_8__0_\.mux_top_track_18\.sky130_fd_sc_hd__mux2_1_1_X
*634 sb_8__0_\.mux_top_track_18\.sky130_fd_sc_hd__mux2_1_2_X
*635 sb_8__0_\.mux_top_track_2\.out
*636 sb_8__0_\.mux_top_track_2\.sky130_fd_sc_hd__mux2_1_0_X
*637 sb_8__0_\.mux_top_track_2\.sky130_fd_sc_hd__mux2_1_1_X
*638 sb_8__0_\.mux_top_track_2\.sky130_fd_sc_hd__mux2_1_2_X
*639 sb_8__0_\.mux_top_track_2\.sky130_fd_sc_hd__mux2_1_3_X
*640 sb_8__0_\.mux_top_track_2\.sky130_fd_sc_hd__mux2_1_4_X
*641 sb_8__0_\.mux_top_track_20\.out
*642 sb_8__0_\.mux_top_track_20\.sky130_fd_sc_hd__mux2_1_0_X
*643 sb_8__0_\.mux_top_track_20\.sky130_fd_sc_hd__mux2_1_1_X
*644 sb_8__0_\.mux_top_track_22\.out
*645 sb_8__0_\.mux_top_track_22\.sky130_fd_sc_hd__mux2_1_0_X
*646 sb_8__0_\.mux_top_track_22\.sky130_fd_sc_hd__mux2_1_1_X
*647 sb_8__0_\.mux_top_track_24\.out
*648 sb_8__0_\.mux_top_track_24\.sky130_fd_sc_hd__mux2_1_0_X
*649 sb_8__0_\.mux_top_track_24\.sky130_fd_sc_hd__mux2_1_1_X
*650 sb_8__0_\.mux_top_track_26\.out
*651 sb_8__0_\.mux_top_track_26\.sky130_fd_sc_hd__mux2_1_0_X
*652 sb_8__0_\.mux_top_track_26\.sky130_fd_sc_hd__mux2_1_1_X
*653 sb_8__0_\.mux_top_track_28\.out
*654 sb_8__0_\.mux_top_track_28\.sky130_fd_sc_hd__mux2_1_0_X
*655 sb_8__0_\.mux_top_track_28\.sky130_fd_sc_hd__mux2_1_1_X
*656 sb_8__0_\.mux_top_track_30\.out
*657 sb_8__0_\.mux_top_track_30\.sky130_fd_sc_hd__mux2_1_0_X
*658 sb_8__0_\.mux_top_track_30\.sky130_fd_sc_hd__mux2_1_1_X
*659 sb_8__0_\.mux_top_track_32\.out
*660 sb_8__0_\.mux_top_track_32\.sky130_fd_sc_hd__mux2_1_0_X
*661 sb_8__0_\.mux_top_track_32\.sky130_fd_sc_hd__mux2_1_1_X
*662 sb_8__0_\.mux_top_track_34\.out
*663 sb_8__0_\.mux_top_track_34\.sky130_fd_sc_hd__mux2_1_0_X
*664 sb_8__0_\.mux_top_track_34\.sky130_fd_sc_hd__mux2_1_1_X
*665 sb_8__0_\.mux_top_track_36\.out
*666 sb_8__0_\.mux_top_track_36\.sky130_fd_sc_hd__mux2_1_0_X
*667 sb_8__0_\.mux_top_track_36\.sky130_fd_sc_hd__mux2_1_1_X
*668 sb_8__0_\.mux_top_track_38\.out
*669 sb_8__0_\.mux_top_track_38\.sky130_fd_sc_hd__mux2_1_0_X
*670 sb_8__0_\.mux_top_track_38\.sky130_fd_sc_hd__mux2_1_1_X
*671 sb_8__0_\.mux_top_track_4\.out
*672 sb_8__0_\.mux_top_track_4\.sky130_fd_sc_hd__mux2_1_0_X
*673 sb_8__0_\.mux_top_track_4\.sky130_fd_sc_hd__mux2_1_1_X
*674 sb_8__0_\.mux_top_track_4\.sky130_fd_sc_hd__mux2_1_2_X
*675 sb_8__0_\.mux_top_track_4\.sky130_fd_sc_hd__mux2_1_3_X
*676 sb_8__0_\.mux_top_track_4\.sky130_fd_sc_hd__mux2_1_4_X
*677 sb_8__0_\.mux_top_track_40\.out
*678 sb_8__0_\.mux_top_track_40\.sky130_fd_sc_hd__mux2_1_0_X
*679 sb_8__0_\.mux_top_track_40\.sky130_fd_sc_hd__mux2_1_1_X
*680 sb_8__0_\.mux_top_track_42\.out
*681 sb_8__0_\.mux_top_track_42\.sky130_fd_sc_hd__mux2_1_0_X
*682 sb_8__0_\.mux_top_track_42\.sky130_fd_sc_hd__mux2_1_1_X
*683 sb_8__0_\.mux_top_track_44\.out
*684 sb_8__0_\.mux_top_track_44\.sky130_fd_sc_hd__mux2_1_0_X
*685 sb_8__0_\.mux_top_track_44\.sky130_fd_sc_hd__mux2_1_1_X
*686 sb_8__0_\.mux_top_track_44\.sky130_fd_sc_hd__mux2_1_2_X
*687 sb_8__0_\.mux_top_track_46\.out
*688 sb_8__0_\.mux_top_track_46\.sky130_fd_sc_hd__mux2_1_0_X
*689 sb_8__0_\.mux_top_track_46\.sky130_fd_sc_hd__mux2_1_1_X
*690 sb_8__0_\.mux_top_track_46\.sky130_fd_sc_hd__mux2_1_2_X
*691 sb_8__0_\.mux_top_track_48\.out
*692 sb_8__0_\.mux_top_track_48\.sky130_fd_sc_hd__mux2_1_0_X
*693 sb_8__0_\.mux_top_track_48\.sky130_fd_sc_hd__mux2_1_1_X
*694 sb_8__0_\.mux_top_track_48\.sky130_fd_sc_hd__mux2_1_2_X
*695 sb_8__0_\.mux_top_track_50\.out
*696 sb_8__0_\.mux_top_track_50\.sky130_fd_sc_hd__mux2_1_0_X
*697 sb_8__0_\.mux_top_track_50\.sky130_fd_sc_hd__mux2_1_1_X
*698 sb_8__0_\.mux_top_track_50\.sky130_fd_sc_hd__mux2_1_2_X
*699 sb_8__0_\.mux_top_track_6\.out
*700 sb_8__0_\.mux_top_track_6\.sky130_fd_sc_hd__mux2_1_0_X
*701 sb_8__0_\.mux_top_track_6\.sky130_fd_sc_hd__mux2_1_1_X
*702 sb_8__0_\.mux_top_track_6\.sky130_fd_sc_hd__mux2_1_2_X
*703 sb_8__0_\.mux_top_track_6\.sky130_fd_sc_hd__mux2_1_3_X
*704 sb_8__0_\.mux_top_track_6\.sky130_fd_sc_hd__mux2_1_4_X
*705 sb_8__0_\.mux_top_track_8\.out
*706 sb_8__0_\.mux_top_track_8\.sky130_fd_sc_hd__mux2_1_0_X
*707 sb_8__0_\.mux_top_track_8\.sky130_fd_sc_hd__mux2_1_1_X
*708 sb_8__0_\.mux_top_track_8\.sky130_fd_sc_hd__mux2_1_2_X
*709 sb_8__0_\.mux_top_track_8\.sky130_fd_sc_hd__mux2_1_3_X
*710 sb_8__0_\.mux_top_track_8\.sky130_fd_sc_hd__mux2_1_4_X
*711 ANTENNA_1
*712 ANTENNA_10
*713 ANTENNA_11
*714 ANTENNA_12
*715 ANTENNA_13
*716 ANTENNA_14
*717 ANTENNA_15
*718 ANTENNA_16
*719 ANTENNA_17
*720 ANTENNA_18
*721 ANTENNA_19
*722 ANTENNA_2
*723 ANTENNA_20
*724 ANTENNA_21
*725 ANTENNA_22
*726 ANTENNA_23
*727 ANTENNA_24
*728 ANTENNA_25
*729 ANTENNA_26
*730 ANTENNA_27
*731 ANTENNA_28
*732 ANTENNA_29
*733 ANTENNA_3
*734 ANTENNA_30
*735 ANTENNA_31
*736 ANTENNA_32
*737 ANTENNA_33
*738 ANTENNA_4
*739 ANTENNA_5
*740 ANTENNA_6
*741 ANTENNA_7
*742 ANTENNA_8
*743 ANTENNA_9
*744 FILLER_0_107
*745 FILLER_0_111
*746 FILLER_0_113
*747 FILLER_0_119
*748 FILLER_0_136
*749 FILLER_0_141
*750 FILLER_0_15
*751 FILLER_0_165
*752 FILLER_0_169
*753 FILLER_0_177
*754 FILLER_0_194
*755 FILLER_0_197
*756 FILLER_0_205
*757 FILLER_0_22
*758 FILLER_0_222
*759 FILLER_0_225
*760 FILLER_0_233
*761 FILLER_0_250
*762 FILLER_0_253
*763 FILLER_0_268
*764 FILLER_0_281
*765 FILLER_0_29
*766 FILLER_0_293
*767 FILLER_0_297
*768 FILLER_0_3
*769 FILLER_0_305
*770 FILLER_0_309
*771 FILLER_0_321
*772 FILLER_0_326
*773 FILLER_0_334
*774 FILLER_0_337
*775 FILLER_0_349
*776 FILLER_0_355
*777 FILLER_0_363
*778 FILLER_0_365
*779 FILLER_0_377
*780 FILLER_0_390
*781 FILLER_0_393
*782 FILLER_0_405
*783 FILLER_0_417
*784 FILLER_0_421
*785 FILLER_0_433
*786 FILLER_0_445
*787 FILLER_0_449
*788 FILLER_0_461
*789 FILLER_0_473
*790 FILLER_0_477
*791 FILLER_0_489
*792 FILLER_0_49
*793 FILLER_0_501
*794 FILLER_0_505
*795 FILLER_0_517
*796 FILLER_0_525
*797 FILLER_0_55
*798 FILLER_0_57
*799 FILLER_0_61
*800 FILLER_0_78
*801 FILLER_0_85
*802 FILLER_10_114
*803 FILLER_10_120
*804 FILLER_10_127
*805 FILLER_10_134
*806 FILLER_10_141
*807 FILLER_10_15
*808 FILLER_10_157
*809 FILLER_10_169
*810 FILLER_10_181
*811 FILLER_10_193
*812 FILLER_10_197
*813 FILLER_10_209
*814 FILLER_10_22
*815 FILLER_10_221
*816 FILLER_10_249
*817 FILLER_10_253
*818 FILLER_10_265
*819 FILLER_10_277
*820 FILLER_10_289
*821 FILLER_10_29
*822 FILLER_10_3
*823 FILLER_10_301
*824 FILLER_10_307
*825 FILLER_10_309
*826 FILLER_10_321
*827 FILLER_10_333
*828 FILLER_10_345
*829 FILLER_10_357
*830 FILLER_10_363
*831 FILLER_10_365
*832 FILLER_10_377
*833 FILLER_10_389
*834 FILLER_10_401
*835 FILLER_10_41
*836 FILLER_10_413
*837 FILLER_10_419
*838 FILLER_10_421
*839 FILLER_10_433
*840 FILLER_10_445
*841 FILLER_10_457
*842 FILLER_10_469
*843 FILLER_10_475
*844 FILLER_10_477
*845 FILLER_10_489
*846 FILLER_10_501
*847 FILLER_10_513
*848 FILLER_10_525
*849 FILLER_10_53
*850 FILLER_10_65
*851 FILLER_10_75
*852 FILLER_10_8
*853 FILLER_10_82
*854 FILLER_10_85
*855 FILLER_10_89
*856 FILLER_10_93
*857 FILLER_11_100
*858 FILLER_11_107
*859 FILLER_11_111
*860 FILLER_11_113
*861 FILLER_11_126
*862 FILLER_11_139
*863 FILLER_11_15
*864 FILLER_11_152
*865 FILLER_11_159
*866 FILLER_11_167
*867 FILLER_11_169
*868 FILLER_11_174
*869 FILLER_11_186
*870 FILLER_11_198
*871 FILLER_11_210
*872 FILLER_11_22
*873 FILLER_11_222
*874 FILLER_11_225
*875 FILLER_11_237
*876 FILLER_11_249
*877 FILLER_11_261
*878 FILLER_11_273
*879 FILLER_11_279
*880 FILLER_11_281
*881 FILLER_11_293
*882 FILLER_11_3
*883 FILLER_11_305
*884 FILLER_11_317
*885 FILLER_11_329
*886 FILLER_11_335
*887 FILLER_11_337
*888 FILLER_11_34
*889 FILLER_11_349
*890 FILLER_11_361
*891 FILLER_11_373
*892 FILLER_11_385
*893 FILLER_11_391
*894 FILLER_11_393
*895 FILLER_11_405
*896 FILLER_11_417
*897 FILLER_11_429
*898 FILLER_11_441
*899 FILLER_11_447
*900 FILLER_11_449
*901 FILLER_11_46
*902 FILLER_11_461
*903 FILLER_11_473
*904 FILLER_11_485
*905 FILLER_11_497
*906 FILLER_11_50
*907 FILLER_11_503
*908 FILLER_11_505
*909 FILLER_11_517
*910 FILLER_11_525
*911 FILLER_11_54
*912 FILLER_11_57
*913 FILLER_11_63
*914 FILLER_11_79
*915 FILLER_11_8
*916 FILLER_11_86
*917 FILLER_12_110
*918 FILLER_12_123
*919 FILLER_12_130
*920 FILLER_12_134
*921 FILLER_12_138
*922 FILLER_12_141
*923 FILLER_12_15
*924 FILLER_12_152
*925 FILLER_12_160
*926 FILLER_12_182