*SPEF "ieee 1481-1999"
*DESIGN "left_tile"
*DATE "11:11:11 Fri 11 11, 1111"
*VENDOR "OpenRCX"
*PROGRAM "Parallel Extraction"
*VERSION "1.0"
*DESIGN_FLOW "NAME_SCOPE LOCAL" "PIN_CAP NONE"
*DIVIDER /
*DELIMITER :
*BUS_DELIMITER []
*T_UNIT 1 NS
*C_UNIT 1 PF
*R_UNIT 1 OHM
*L_UNIT 1 HENRY

*NAME_MAP
*3 ccff_head
*4 ccff_head_0
*5 ccff_tail
*6 ccff_tail_0
*7 chanx_right_in[0]
*8 chanx_right_in[10]
*9 chanx_right_in[11]
*10 chanx_right_in[12]
*11 chanx_right_in[13]
*12 chanx_right_in[14]
*13 chanx_right_in[15]
*14 chanx_right_in[16]
*15 chanx_right_in[17]
*16 chanx_right_in[18]
*17 chanx_right_in[19]
*18 chanx_right_in[1]
*19 chanx_right_in[20]
*20 chanx_right_in[21]
*21 chanx_right_in[22]
*22 chanx_right_in[23]
*23 chanx_right_in[24]
*24 chanx_right_in[25]
*25 chanx_right_in[26]
*26 chanx_right_in[27]
*27 chanx_right_in[28]
*28 chanx_right_in[29]
*29 chanx_right_in[2]
*30 chanx_right_in[3]
*31 chanx_right_in[4]
*32 chanx_right_in[5]
*33 chanx_right_in[6]
*34 chanx_right_in[7]
*35 chanx_right_in[8]
*36 chanx_right_in[9]
*37 net270
*38 chanx_right_out[10]
*39 chanx_right_out[11]
*40 chanx_right_out[12]
*41 chanx_right_out[13]
*42 chanx_right_out[14]
*43 chanx_right_out[15]
*44 chanx_right_out[16]
*45 chanx_right_out[17]
*46 chanx_right_out[18]
*47 chanx_right_out[19]
*48 chanx_right_out[1]
*49 chanx_right_out[20]
*50 chanx_right_out[21]
*51 chanx_right_out[22]
*52 chanx_right_out[23]
*53 chanx_right_out[24]
*54 chanx_right_out[25]
*55 chanx_right_out[26]
*56 chanx_right_out[27]
*57 chanx_right_out[28]
*58 chanx_right_out[29]
*59 chanx_right_out[2]
*60 chanx_right_out[3]
*61 chanx_right_out[4]
*62 chanx_right_out[5]
*63 chanx_right_out[6]
*64 chanx_right_out[7]
*65 chanx_right_out[8]
*66 chanx_right_out[9]
*67 chany_bottom_in[0]
*68 chany_bottom_in[10]
*69 chany_bottom_in[11]
*70 chany_bottom_in[12]
*71 chany_bottom_in[13]
*72 chany_bottom_in[14]
*73 chany_bottom_in[15]
*74 chany_bottom_in[16]
*75 chany_bottom_in[17]
*76 chany_bottom_in[18]
*77 chany_bottom_in[19]
*78 chany_bottom_in[1]
*79 chany_bottom_in[20]
*80 chany_bottom_in[21]
*81 chany_bottom_in[22]
*82 chany_bottom_in[23]
*83 chany_bottom_in[24]
*84 chany_bottom_in[25]
*85 chany_bottom_in[26]
*86 chany_bottom_in[27]
*87 chany_bottom_in[28]
*88 chany_bottom_in[29]
*89 chany_bottom_in[2]
*90 chany_bottom_in[3]
*91 chany_bottom_in[4]
*92 chany_bottom_in[5]
*93 chany_bottom_in[6]
*94 chany_bottom_in[7]
*95 chany_bottom_in[8]
*96 chany_bottom_in[9]
*97 chany_bottom_out[0]
*98 chany_bottom_out[10]
*99 chany_bottom_out[11]
*100 chany_bottom_out[12]
*101 chany_bottom_out[13]
*102 chany_bottom_out[14]
*103 chany_bottom_out[15]
*104 chany_bottom_out[16]
*105 chany_bottom_out[17]
*106 chany_bottom_out[18]
*107 chany_bottom_out[19]
*108 chany_bottom_out[1]
*109 chany_bottom_out[20]
*110 chany_bottom_out[21]
*111 chany_bottom_out[22]
*112 chany_bottom_out[23]
*113 chany_bottom_out[24]
*114 chany_bottom_out[25]
*115 chany_bottom_out[26]
*116 chany_bottom_out[27]
*117 chany_bottom_out[28]
*118 chany_bottom_out[29]
*119 chany_bottom_out[2]
*120 chany_bottom_out[3]
*121 chany_bottom_out[4]
*122 chany_bottom_out[5]
*123 chany_bottom_out[6]
*124 chany_bottom_out[7]
*125 chany_bottom_out[8]
*126 chany_bottom_out[9]
*127 chany_top_in_0[0]
*128 chany_top_in_0[10]
*129 chany_top_in_0[11]
*130 chany_top_in_0[12]
*131 chany_top_in_0[13]
*132 chany_top_in_0[14]
*133 chany_top_in_0[15]
*134 chany_top_in_0[16]
*135 chany_top_in_0[17]
*136 chany_top_in_0[18]
*137 chany_top_in_0[19]
*138 chany_top_in_0[1]
*139 chany_top_in_0[20]
*140 chany_top_in_0[21]
*141 chany_top_in_0[22]
*142 chany_top_in_0[23]
*143 chany_top_in_0[24]
*144 chany_top_in_0[25]
*145 chany_top_in_0[26]
*146 chany_top_in_0[27]
*147 chany_top_in_0[28]
*148 chany_top_in_0[29]
*149 chany_top_in_0[2]
*150 chany_top_in_0[3]
*151 chany_top_in_0[4]
*152 chany_top_in_0[5]
*153 chany_top_in_0[6]
*154 chany_top_in_0[7]
*155 chany_top_in_0[8]
*156 chany_top_in_0[9]
*157 chany_top_out_0[0]
*158 chany_top_out_0[10]
*159 chany_top_out_0[11]
*160 chany_top_out_0[12]
*161 chany_top_out_0[13]
*162 chany_top_out_0[14]
*163 chany_top_out_0[15]
*164 chany_top_out_0[16]
*165 chany_top_out_0[17]
*166 chany_top_out_0[18]
*167 chany_top_out_0[19]
*168 chany_top_out_0[1]
*169 chany_top_out_0[20]
*170 chany_top_out_0[21]
*171 chany_top_out_0[22]
*172 chany_top_out_0[23]
*173 chany_top_out_0[24]
*174 chany_top_out_0[25]
*175 chany_top_out_0[26]
*176 chany_top_out_0[27]
*177 chany_top_out_0[28]
*178 chany_top_out_0[29]
*179 chany_top_out_0[2]
*180 chany_top_out_0[3]
*181 chany_top_out_0[4]
*182 chany_top_out_0[5]
*183 chany_top_out_0[6]
*184 chany_top_out_0[7]
*185 chany_top_out_0[8]
*186 chany_top_out_0[9]
*187 gfpga_pad_io_soc_dir[0]
*188 gfpga_pad_io_soc_dir[1]
*189 gfpga_pad_io_soc_dir[2]
*190 gfpga_pad_io_soc_dir[3]
*191 gfpga_pad_io_soc_in[0]
*192 gfpga_pad_io_soc_in[1]
*193 gfpga_pad_io_soc_in[2]
*194 gfpga_pad_io_soc_in[3]
*195 gfpga_pad_io_soc_out[0]
*196 gfpga_pad_io_soc_out[1]
*197 gfpga_pad_io_soc_out[2]
*198 gfpga_pad_io_soc_out[3]
*199 isol_n
*200 prog_clk
*201 prog_reset_bottom_in
*202 prog_reset_bottom_out
*203 prog_reset_left_in
*204 prog_reset_right_out
*205 prog_reset_top_in
*206 prog_reset_top_out
*207 reset_bottom_in
*208 reset_bottom_out
*209 reset_right_in
*210 reset_top_in
*211 reset_top_out
*212 right_bottom_grid_top_width_0_height_0_subtile_0__pin_O_0_
*213 right_bottom_grid_top_width_0_height_0_subtile_0__pin_O_1_
*214 right_bottom_grid_top_width_0_height_0_subtile_0__pin_O_2_
*215 right_bottom_grid_top_width_0_height_0_subtile_0__pin_O_3_
*216 right_bottom_grid_top_width_0_height_0_subtile_0__pin_O_4_
*217 right_bottom_grid_top_width_0_height_0_subtile_0__pin_O_5_
*218 right_bottom_grid_top_width_0_height_0_subtile_0__pin_O_6_
*219 right_bottom_grid_top_width_0_height_0_subtile_0__pin_O_7_
*220 right_width_0_height_0_subtile_0__pin_inpad_0_
*221 right_width_0_height_0_subtile_1__pin_inpad_0_
*222 right_width_0_height_0_subtile_2__pin_inpad_0_
*223 right_width_0_height_0_subtile_3__pin_inpad_0_
*224 test_enable_bottom_in
*225 test_enable_bottom_out
*226 test_enable_right_in
*227 test_enable_top_in
*228 test_enable_top_out
*229 top_left_grid_right_width_0_height_0_subtile_0__pin_inpad_0_
*230 top_left_grid_right_width_0_height_0_subtile_1__pin_inpad_0_
*231 top_left_grid_right_width_0_height_0_subtile_2__pin_inpad_0_
*232 top_left_grid_right_width_0_height_0_subtile_3__pin_inpad_0_
*233 cby_0__1_\.cby_0__1_\.ccff_tail
*234 cby_0__1_\.cby_0__1_\.left_grid_right_width_0_height_0_subtile_0__pin_outpad_0_
*235 cby_0__1_\.cby_0__1_\.left_grid_right_width_0_height_0_subtile_1__pin_outpad_0_
*236 cby_0__1_\.cby_0__1_\.left_grid_right_width_0_height_0_subtile_2__pin_outpad_0_
*237 cby_0__1_\.cby_0__1_\.left_grid_right_width_0_height_0_subtile_3__pin_outpad_0_
*238 cby_0__1_\.cby_0__1_\.mem_right_ipin_0\.ccff_tail
*239 cby_0__1_\.cby_0__1_\.mem_right_ipin_0\.mem_out\[0\]
*240 cby_0__1_\.cby_0__1_\.mem_right_ipin_0\.mem_out\[1\]
*241 cby_0__1_\.cby_0__1_\.mem_right_ipin_0\.mem_out\[2\]
*242 cby_0__1_\.cby_0__1_\.mem_right_ipin_1\.ccff_tail
*243 cby_0__1_\.cby_0__1_\.mem_right_ipin_1\.mem_out\[0\]
*244 cby_0__1_\.cby_0__1_\.mem_right_ipin_1\.mem_out\[1\]
*245 cby_0__1_\.cby_0__1_\.mem_right_ipin_1\.mem_out\[2\]
*246 cby_0__1_\.cby_0__1_\.mem_right_ipin_2\.ccff_tail
*247 cby_0__1_\.cby_0__1_\.mem_right_ipin_2\.mem_out\[0\]
*248 cby_0__1_\.cby_0__1_\.mem_right_ipin_2\.mem_out\[1\]
*249 cby_0__1_\.cby_0__1_\.mem_right_ipin_2\.mem_out\[2\]
*250 cby_0__1_\.cby_0__1_\.mem_right_ipin_3\.mem_out\[0\]
*251 cby_0__1_\.cby_0__1_\.mem_right_ipin_3\.mem_out\[1\]
*252 cby_0__1_\.cby_0__1_\.mem_right_ipin_3\.mem_out\[2\]
*253 cby_0__1_\.cby_0__1_\.mux_right_ipin_0\.sky130_fd_sc_hd__mux2_1_0_X
*254 cby_0__1_\.cby_0__1_\.mux_right_ipin_0\.sky130_fd_sc_hd__mux2_1_10_X
*255 cby_0__1_\.cby_0__1_\.mux_right_ipin_0\.sky130_fd_sc_hd__mux2_1_11_X
*256 cby_0__1_\.cby_0__1_\.mux_right_ipin_0\.sky130_fd_sc_hd__mux2_1_1_X
*257 cby_0__1_\.cby_0__1_\.mux_right_ipin_0\.sky130_fd_sc_hd__mux2_1_2_X
*258 cby_0__1_\.cby_0__1_\.mux_right_ipin_0\.sky130_fd_sc_hd__mux2_1_3_X
*259 cby_0__1_\.cby_0__1_\.mux_right_ipin_0\.sky130_fd_sc_hd__mux2_1_4_X
*260 cby_0__1_\.cby_0__1_\.mux_right_ipin_0\.sky130_fd_sc_hd__mux2_1_5_X
*261 cby_0__1_\.cby_0__1_\.mux_right_ipin_0\.sky130_fd_sc_hd__mux2_1_6_X
*262 cby_0__1_\.cby_0__1_\.mux_right_ipin_0\.sky130_fd_sc_hd__mux2_1_7_X
*263 cby_0__1_\.cby_0__1_\.mux_right_ipin_0\.sky130_fd_sc_hd__mux2_1_8_X
*264 cby_0__1_\.cby_0__1_\.mux_right_ipin_0\.sky130_fd_sc_hd__mux2_1_9_X
*265 cby_0__1_\.cby_0__1_\.mux_right_ipin_1\.sky130_fd_sc_hd__mux2_1_0_X
*266 cby_0__1_\.cby_0__1_\.mux_right_ipin_1\.sky130_fd_sc_hd__mux2_1_10_X
*267 cby_0__1_\.cby_0__1_\.mux_right_ipin_1\.sky130_fd_sc_hd__mux2_1_11_X
*268 cby_0__1_\.cby_0__1_\.mux_right_ipin_1\.sky130_fd_sc_hd__mux2_1_1_X
*269 cby_0__1_\.cby_0__1_\.mux_right_ipin_1\.sky130_fd_sc_hd__mux2_1_2_X
*270 cby_0__1_\.cby_0__1_\.mux_right_ipin_1\.sky130_fd_sc_hd__mux2_1_3_X
*271 cby_0__1_\.cby_0__1_\.mux_right_ipin_1\.sky130_fd_sc_hd__mux2_1_4_X
*272 cby_0__1_\.cby_0__1_\.mux_right_ipin_1\.sky130_fd_sc_hd__mux2_1_5_X
*273 cby_0__1_\.cby_0__1_\.mux_right_ipin_1\.sky130_fd_sc_hd__mux2_1_6_X
*274 cby_0__1_\.cby_0__1_\.mux_right_ipin_1\.sky130_fd_sc_hd__mux2_1_7_X
*275 cby_0__1_\.cby_0__1_\.mux_right_ipin_1\.sky130_fd_sc_hd__mux2_1_8_X
*276 cby_0__1_\.cby_0__1_\.mux_right_ipin_1\.sky130_fd_sc_hd__mux2_1_9_X
*277 cby_0__1_\.cby_0__1_\.mux_right_ipin_2\.sky130_fd_sc_hd__mux2_1_0_X
*278 cby_0__1_\.cby_0__1_\.mux_right_ipin_2\.sky130_fd_sc_hd__mux2_1_10_X
*279 cby_0__1_\.cby_0__1_\.mux_right_ipin_2\.sky130_fd_sc_hd__mux2_1_11_X
*280 cby_0__1_\.cby_0__1_\.mux_right_ipin_2\.sky130_fd_sc_hd__mux2_1_1_X
*281 cby_0__1_\.cby_0__1_\.mux_right_ipin_2\.sky130_fd_sc_hd__mux2_1_2_X
*282 cby_0__1_\.cby_0__1_\.mux_right_ipin_2\.sky130_fd_sc_hd__mux2_1_3_X
*283 cby_0__1_\.cby_0__1_\.mux_right_ipin_2\.sky130_fd_sc_hd__mux2_1_4_X
*284 cby_0__1_\.cby_0__1_\.mux_right_ipin_2\.sky130_fd_sc_hd__mux2_1_5_X
*285 cby_0__1_\.cby_0__1_\.mux_right_ipin_2\.sky130_fd_sc_hd__mux2_1_6_X
*286 cby_0__1_\.cby_0__1_\.mux_right_ipin_2\.sky130_fd_sc_hd__mux2_1_7_X
*287 cby_0__1_\.cby_0__1_\.mux_right_ipin_2\.sky130_fd_sc_hd__mux2_1_8_X
*288 cby_0__1_\.cby_0__1_\.mux_right_ipin_2\.sky130_fd_sc_hd__mux2_1_9_X
*289 cby_0__1_\.cby_0__1_\.mux_right_ipin_3\.sky130_fd_sc_hd__mux2_1_0_X
*290 cby_0__1_\.cby_0__1_\.mux_right_ipin_3\.sky130_fd_sc_hd__mux2_1_10_X
*291 cby_0__1_\.cby_0__1_\.mux_right_ipin_3\.sky130_fd_sc_hd__mux2_1_11_X
*292 cby_0__1_\.cby_0__1_\.mux_right_ipin_3\.sky130_fd_sc_hd__mux2_1_1_X
*293 cby_0__1_\.cby_0__1_\.mux_right_ipin_3\.sky130_fd_sc_hd__mux2_1_2_X
*294 cby_0__1_\.cby_0__1_\.mux_right_ipin_3\.sky130_fd_sc_hd__mux2_1_3_X
*295 cby_0__1_\.cby_0__1_\.mux_right_ipin_3\.sky130_fd_sc_hd__mux2_1_4_X
*296 cby_0__1_\.cby_0__1_\.mux_right_ipin_3\.sky130_fd_sc_hd__mux2_1_5_X
*297 cby_0__1_\.cby_0__1_\.mux_right_ipin_3\.sky130_fd_sc_hd__mux2_1_6_X
*298 cby_0__1_\.cby_0__1_\.mux_right_ipin_3\.sky130_fd_sc_hd__mux2_1_7_X
*299 cby_0__1_\.cby_0__1_\.mux_right_ipin_3\.sky130_fd_sc_hd__mux2_1_8_X
*300 cby_0__1_\.cby_0__1_\.mux_right_ipin_3\.sky130_fd_sc_hd__mux2_1_9_X
*301 cby_0__1_\.grid_io_left_left_0__1_\.logical_tile_io_mode_io__0\.ccff_tail
*302 cby_0__1_\.grid_io_left_left_0__1_\.logical_tile_io_mode_io__0\.gfpga_pad_io_soc_dir
*303 cby_0__1_\.grid_io_left_left_0__1_\.logical_tile_io_mode_io__0\.gfpga_pad_io_soc_out
*304 cby_0__1_\.grid_io_left_left_0__1_\.logical_tile_io_mode_io__0\.logical_tile_io_mode_physical__iopad_0\.io_0_\.SOC_DIR_N
*305 cby_0__1_\.grid_io_left_left_0__1_\.logical_tile_io_mode_io__1\.ccff_tail
*306 cby_0__1_\.grid_io_left_left_0__1_\.logical_tile_io_mode_io__1\.gfpga_pad_io_soc_dir
*307 cby_0__1_\.grid_io_left_left_0__1_\.logical_tile_io_mode_io__1\.gfpga_pad_io_soc_out
*308 cby_0__1_\.grid_io_left_left_0__1_\.logical_tile_io_mode_io__1\.logical_tile_io_mode_physical__iopad_0\.io_0_\.SOC_DIR_N
*309 cby_0__1_\.grid_io_left_left_0__1_\.logical_tile_io_mode_io__2\.ccff_tail
*310 cby_0__1_\.grid_io_left_left_0__1_\.logical_tile_io_mode_io__2\.gfpga_pad_io_soc_dir
*311 cby_0__1_\.grid_io_left_left_0__1_\.logical_tile_io_mode_io__2\.gfpga_pad_io_soc_out
*312 cby_0__1_\.grid_io_left_left_0__1_\.logical_tile_io_mode_io__2\.logical_tile_io_mode_physical__iopad_0\.io_0_\.SOC_DIR_N
*313 cby_0__1_\.grid_io_left_left_0__1_\.logical_tile_io_mode_io__3\.gfpga_pad_io_soc_dir
*314 cby_0__1_\.grid_io_left_left_0__1_\.logical_tile_io_mode_io__3\.gfpga_pad_io_soc_out
*315 cby_0__1_\.grid_io_left_left_0__1_\.logical_tile_io_mode_io__3\.logical_tile_io_mode_physical__iopad_0\.io_0_\.SOC_DIR_N
*316 clknet_0_prog_clk
*317 clknet_4_0_0_prog_clk
*318 clknet_4_10_0_prog_clk
*319 clknet_4_11_0_prog_clk
*320 clknet_4_12_0_prog_clk
*321 clknet_4_13_0_prog_clk
*322 clknet_4_14_0_prog_clk
*323 clknet_4_15_0_prog_clk
*324 clknet_4_1_0_prog_clk
*325 clknet_4_2_0_prog_clk
*326 clknet_4_3_0_prog_clk
*327 clknet_4_4_0_prog_clk
*328 clknet_4_5_0_prog_clk
*329 clknet_4_6_0_prog_clk
*330 clknet_4_7_0_prog_clk
*331 clknet_4_8_0_prog_clk
*332 clknet_4_9_0_prog_clk
*333 net1
*334 net10
*335 net100
*336 net101
*337 net102
*338 net103
*339 net104
*340 net105
*341 net106
*342 net107
*343 net108
*344 net109
*345 net11
*346 net110
*347 net111
*348 net112
*349 net113
*350 net114
*351 net115
*352 net116
*353 net117
*354 net118
*355 net119
*356 net12
*357 net120
*358 net121
*359 net122
*360 net123
*361 net124
*362 net125
*363 net126
*364 net127
*365 net128
*366 net129
*367 net13
*368 net130
*369 net131
*370 net132
*371 net133
*372 net134
*373 net135
*374 net136
*375 net137
*376 net138
*377 net139
*378 net14
*379 net140
*380 net141
*381 net142
*382 net143
*383 net144
*384 net145
*385 net146
*386 net147
*387 net148
*388 net149
*389 net15
*390 net150
*391 net151
*392 net152
*393 net153
*394 net154
*395 net155
*396 net156
*397 net157
*398 net158
*399 net159
*400 net16
*401 net160
*402 net161
*403 net162
*404 net163
*405 net164
*406 net165
*407 net166
*408 net167
*409 net168
*410 net169
*411 net17
*412 net170
*413 net171
*414 net172
*415 net173
*416 net174
*417 net175
*418 net176
*419 net177
*420 net178
*421 net179
*422 net18
*423 net180
*424 net181
*425 net182
*426 net183
*427 net184
*428 net185
*429 net186
*430 net187
*431 net188
*432 net189
*433 net19
*434 net190
*435 net191
*436 net192
*437 net193
*438 net194
*439 net195
*440 net196
*441 net197
*442 net198
*443 net199
*444 net2
*445 net20
*446 net200
*447 net201
*448 net202
*449 net203
*450 net204
*451 net205
*452 net206
*453 net207
*454 net208
*455 net209
*456 net21
*457 net210
*458 net211
*459 net212
*460 net213
*461 net214
*462 net215
*463 net216
*464 net217
*465 net218
*466 net219
*467 net22
*468 net220
*469 net221
*470 net222
*471 net223
*472 net224
*473 net225
*474 net226
*475 net227
*476 net228
*477 net229
*478 net23
*479 net230
*480 net231
*481 net232
*482 net233
*483 net234
*484 net235
*485 net236
*486 net237
*487 net238
*488 net239
*489 net24
*490 net240
*491 net241
*492 net242
*493 net243
*494 net244
*495 net245
*496 net246
*497 net247
*498 net248
*499 net249
*500 net25
*501 net250
*502 net251
*503 net252
*504 net253
*505 net254
*506 net255
*507 net256
*508 net257
*509 net258
*510 net259
*511 net26
*512 net260
*513 net261
*514 net262
*515 net263
*516 net264
*517 net265
*518 net266
*519 net267
*520 net268
*521 net269
*522 net27
*523 net271
*524 net272
*525 net273
*526 net274
*527 net275
*528 net276
*529 net277
*530 net278
*531 net279
*532 net28
*533 net29
*534 net3
*535 net30
*536 net31
*537 net32
*538 net33
*539 net34
*540 net35
*541 net36
*542 net37
*543 net38
*544 net39
*545 net4
*546 net40
*547 net41
*548 net42
*549 net43
*550 net44
*551 net45
*552 net46
*553 net47
*554 net48
*555 net49
*556 net5
*557 net50
*558 net51
*559 net52
*560 net53
*561 net54
*562 net55
*563 net56
*564 net57
*565 net58
*566 net59
*567 net6
*568 net60
*569 net61
*570 net62
*571 net63
*572 net64
*573 net65
*574 net66
*575 net67
*576 net68
*577 net69
*578 net7
*579 net70
*580 net71
*581 net72
*582 net73
*583 net74
*584 net75
*585 net76
*586 net77
*587 net78
*588 net79
*589 net8
*590 net80
*591 net81
*592 net82
*593 net83
*594 net84
*595 net85
*596 net86
*597 net87
*598 net88
*599 net89
*600 net9
*601 net90
*602 net91
*603 net92
*604 net93
*605 net94
*606 net95
*607 net96
*608 net97
*609 net98
*610 net99
*611 sb_0__1_\.mem_bottom_track_1\.ccff_head
*612 sb_0__1_\.mem_bottom_track_1\.ccff_tail
*613 sb_0__1_\.mem_bottom_track_1\.mem_out\[0\]
*614 sb_0__1_\.mem_bottom_track_1\.mem_out\[1\]
*615 sb_0__1_\.mem_bottom_track_11\.ccff_head
*616 sb_0__1_\.mem_bottom_track_11\.ccff_tail
*617 sb_0__1_\.mem_bottom_track_11\.mem_out\[0\]
*618 sb_0__1_\.mem_bottom_track_11\.mem_out\[1\]
*619 sb_0__1_\.mem_bottom_track_13\.ccff_tail
*620 sb_0__1_\.mem_bottom_track_13\.mem_out\[0\]
*621 sb_0__1_\.mem_bottom_track_13\.mem_out\[1\]
*622 sb_0__1_\.mem_bottom_track_21\.ccff_tail
*623 sb_0__1_\.mem_bottom_track_21\.mem_out\[0\]
*624 sb_0__1_\.mem_bottom_track_21\.mem_out\[1\]
*625 sb_0__1_\.mem_bottom_track_29\.ccff_tail
*626 sb_0__1_\.mem_bottom_track_29\.mem_out\[0\]
*627 sb_0__1_\.mem_bottom_track_29\.mem_out\[1\]
*628 sb_0__1_\.mem_bottom_track_3\.ccff_tail
*629 sb_0__1_\.mem_bottom_track_3\.mem_out\[0\]
*630 sb_0__1_\.mem_bottom_track_3\.mem_out\[1\]
*631 sb_0__1_\.mem_bottom_track_37\.ccff_tail
*632 sb_0__1_\.mem_bottom_track_37\.mem_out\[0\]
*633 sb_0__1_\.mem_bottom_track_37\.mem_out\[1\]
*634 sb_0__1_\.mem_bottom_track_45\.ccff_tail
*635 sb_0__1_\.mem_bottom_track_45\.mem_out\[0\]
*636 sb_0__1_\.mem_bottom_track_45\.mem_out\[1\]
*637 sb_0__1_\.mem_bottom_track_5\.ccff_tail
*638 sb_0__1_\.mem_bottom_track_5\.mem_out\[0\]
*639 sb_0__1_\.mem_bottom_track_5\.mem_out\[1\]
*640 sb_0__1_\.mem_bottom_track_53\.mem_out\[0\]
*641 sb_0__1_\.mem_bottom_track_7\.mem_out\[0\]
*642 sb_0__1_\.mem_bottom_track_7\.mem_out\[1\]
*643 sb_0__1_\.mem_right_track_0\.ccff_head
*644 sb_0__1_\.mem_right_track_0\.ccff_tail
*645 sb_0__1_\.mem_right_track_0\.mem_out\[0\]
*646 sb_0__1_\.mem_right_track_0\.mem_out\[1\]
*647 sb_0__1_\.mem_right_track_10\.ccff_head
*648 sb_0__1_\.mem_right_track_10\.ccff_tail
*649 sb_0__1_\.mem_right_track_10\.mem_out\[0\]
*650 sb_0__1_\.mem_right_track_10\.mem_out\[1\]
*651 sb_0__1_\.mem_right_track_12\.ccff_tail
*652 sb_0__1_\.mem_right_track_12\.mem_out\[0\]
*653 sb_0__1_\.mem_right_track_12\.mem_out\[1\]
*654 sb_0__1_\.mem_right_track_14\.ccff_tail
*655 sb_0__1_\.mem_right_track_14\.mem_out\[0\]
*656 sb_0__1_\.mem_right_track_14\.mem_out\[1\]
*657 sb_0__1_\.mem_right_track_16\.ccff_tail
*658 sb_0__1_\.mem_right_track_16\.mem_out\[0\]
*659 sb_0__1_\.mem_right_track_16\.mem_out\[1\]
*660 sb_0__1_\.mem_right_track_18\.ccff_tail
*661 sb_0__1_\.mem_right_track_18\.mem_out\[0\]
*662 sb_0__1_\.mem_right_track_18\.mem_out\[1\]
*663 sb_0__1_\.mem_right_track_2\.ccff_tail
*664 sb_0__1_\.mem_right_track_2\.mem_out\[0\]
*665 sb_0__1_\.mem_right_track_2\.mem_out\[1\]
*666 sb_0__1_\.mem_right_track_20\.ccff_tail
*667 sb_0__1_\.mem_right_track_20\.mem_out\[0\]
*668 sb_0__1_\.mem_right_track_20\.mem_out\[1\]
*669 sb_0__1_\.mem_right_track_22\.ccff_tail
*670 sb_0__1_\.mem_right_track_22\.mem_out\[0\]
*671 sb_0__1_\.mem_right_track_22\.mem_out\[1\]
*672 sb_0__1_\.mem_right_track_24\.ccff_tail
*673 sb_0__1_\.mem_right_track_24\.mem_out\[0\]
*674 sb_0__1_\.mem_right_track_26\.ccff_tail
*675 sb_0__1_\.mem_right_track_26\.mem_out\[0\]
*676 sb_0__1_\.mem_right_track_28\.ccff_tail
*677 sb_0__1_\.mem_right_track_28\.mem_out\[0\]
*678 sb_0__1_\.mem_right_track_30\.ccff_tail
*679 sb_0__1_\.mem_right_track_30\.mem_out\[0\]
*680 sb_0__1_\.mem_right_track_32\.ccff_tail
*681 sb_0__1_\.mem_right_track_32\.mem_out\[0\]
*682 sb_0__1_\.mem_right_track_34\.ccff_tail
*683 sb_0__1_\.mem_right_track_34\.mem_out\[0\]
*684 sb_0__1_\.mem_right_track_36\.ccff_tail
*685 sb_0__1_\.mem_right_track_36\.mem_out\[0\]
*686 sb_0__1_\.mem_right_track_36\.mem_out\[1\]
*687 sb_0__1_\.mem_right_track_38\.ccff_tail
*688 sb_0__1_\.mem_right_track_38\.mem_out\[0\]
*689 sb_0__1_\.mem_right_track_4\.ccff_tail
*690 sb_0__1_\.mem_right_track_4\.mem_out\[0\]
*691 sb_0__1_\.mem_right_track_4\.mem_out\[1\]
*692 sb_0__1_\.mem_right_track_40\.ccff_tail
*693 sb_0__1_\.mem_right_track_40\.mem_out\[0\]
*694 sb_0__1_\.mem_right_track_44\.ccff_tail
*695 sb_0__1_\.mem_right_track_44\.mem_out\[0\]
*696 sb_0__1_\.mem_right_track_46\.ccff_tail
*697 sb_0__1_\.mem_right_track_46\.mem_out\[0\]
*698 sb_0__1_\.mem_right_track_48\.ccff_tail
*699 sb_0__1_\.mem_right_track_48\.mem_out\[0\]
*700 sb_0__1_\.mem_right_track_50\.ccff_tail
*701 sb_0__1_\.mem_right_track_50\.mem_out\[0\]
*702 sb_0__1_\.mem_right_track_52\.ccff_tail
*703 sb_0__1_\.mem_right_track_52\.mem_out\[0\]
*704 sb_0__1_\.mem_right_track_54\.ccff_tail
*705 sb_0__1_\.mem_right_track_54\.mem_out\[0\]
*706 sb_0__1_\.mem_right_track_56\.mem_out\[0\]
*707 sb_0__1_\.mem_right_track_6\.ccff_tail
*708 sb_0__1_\.mem_right_track_6\.mem_out\[0\]
*709 sb_0__1_\.mem_right_track_6\.mem_out\[1\]
*710 sb_0__1_\.mem_right_track_8\.mem_out\[0\]
*711 sb_0__1_\.mem_right_track_8\.mem_out\[1\]
*712 sb_0__1_\.mem_top_track_0\.ccff_tail
*713 sb_0__1_\.mem_top_track_0\.mem_out\[0\]
*714 sb_0__1_\.mem_top_track_0\.mem_out\[1\]
*715 sb_0__1_\.mem_top_track_10\.ccff_head
*716 sb_0__1_\.mem_top_track_10\.ccff_tail
*717 sb_0__1_\.mem_top_track_10\.mem_out\[0\]
*718 sb_0__1_\.mem_top_track_10\.mem_out\[1\]
*719 sb_0__1_\.mem_top_track_12\.ccff_tail
*720 sb_0__1_\.mem_top_track_12\.mem_out\[0\]
*721 sb_0__1_\.mem_top_track_12\.mem_out\[1\]
*722 sb_0__1_\.mem_top_track_2\.ccff_tail
*723 sb_0__1_\.mem_top_track_2\.mem_out\[0\]
*724 sb_0__1_\.mem_top_track_2\.mem_out\[1\]
*725 sb_0__1_\.mem_top_track_20\.ccff_tail
*726 sb_0__1_\.mem_top_track_20\.mem_out\[0\]
*727 sb_0__1_\.mem_top_track_20\.mem_out\[1\]
*728 sb_0__1_\.mem_top_track_28\.ccff_tail
*729 sb_0__1_\.mem_top_track_28\.mem_out\[0\]
*730 sb_0__1_\.mem_top_track_28\.mem_out\[1\]
*731 sb_0__1_\.mem_top_track_36\.ccff_tail
*732 sb_0__1_\.mem_top_track_36\.mem_out\[0\]
*733 sb_0__1_\.mem_top_track_36\.mem_out\[1\]
*734 sb_0__1_\.mem_top_track_4\.ccff_tail
*735 sb_0__1_\.mem_top_track_4\.mem_out\[0\]
*736 sb_0__1_\.mem_top_track_4\.mem_out\[1\]
*737 sb_0__1_\.mem_top_track_44\.ccff_tail
*738 sb_0__1_\.mem_top_track_44\.mem_out\[0\]
*739 sb_0__1_\.mem_top_track_52\.mem_out\[0\]
*740 sb_0__1_\.mem_top_track_52\.mem_out\[1\]
*741 sb_0__1_\.mem_top_track_6\.mem_out\[0\]
*742 sb_0__1_\.mem_top_track_6\.mem_out\[1\]
*743 sb_0__1_\.mux_bottom_track_1\.out
*744 sb_0__1_\.mux_bottom_track_1\.sky130_fd_sc_hd__mux2_1_0_X
*745 sb_0__1_\.mux_bottom_track_1\.sky130_fd_sc_hd__mux2_1_1_X
*746 sb_0__1_\.mux_bottom_track_1\.sky130_fd_sc_hd__mux2_1_2_X
*747 sb_0__1_\.mux_bottom_track_1\.sky130_fd_sc_hd__mux2_1_3_X
*748 sb_0__1_\.mux_bottom_track_1\.sky130_fd_sc_hd__mux2_1_4_X
*749 sb_0__1_\.mux_bottom_track_1\.sky130_fd_sc_hd__mux2_1_5_X
*750 sb_0__1_\.mux_bottom_track_11\.out
*751 sb_0__1_\.mux_bottom_track_11\.sky130_fd_sc_hd__mux2_1_0_X
*752 sb_0__1_\.mux_bottom_track_11\.sky130_fd_sc_hd__mux2_1_1_X
*753 sb_0__1_\.mux_bottom_track_11\.sky130_fd_sc_hd__mux2_1_2_X
*754 sb_0__1_\.mux_bottom_track_11\.sky130_fd_sc_hd__mux2_1_3_X
*755 sb_0__1_\.mux_bottom_track_11\.sky130_fd_sc_hd__mux2_1_4_X
*756 sb_0__1_\.mux_bottom_track_11\.sky130_fd_sc_hd__mux2_1_5_X
*757 sb_0__1_\.mux_bottom_track_11\.sky130_fd_sc_hd__mux2_1_6_X
*758 sb_0__1_\.mux_bottom_track_13\.out
*759 sb_0__1_\.mux_bottom_track_13\.sky130_fd_sc_hd__mux2_1_0_X
*760 sb_0__1_\.mux_bottom_track_13\.sky130_fd_sc_hd__mux2_1_1_X
*761 sb_0__1_\.mux_bottom_track_13\.sky130_fd_sc_hd__mux2_1_2_X
*762 sb_0__1_\.mux_bottom_track_13\.sky130_fd_sc_hd__mux2_1_3_X
*763 sb_0__1_\.mux_bottom_track_13\.sky130_fd_sc_hd__mux2_1_4_X
*764 sb_0__1_\.mux_bottom_track_13\.sky130_fd_sc_hd__mux2_1_5_X
*765 sb_0__1_\.mux_bottom_track_21\.out
*766 sb_0__1_\.mux_bottom_track_21\.sky130_fd_sc_hd__mux2_1_0_X
*767 sb_0__1_\.mux_bottom_track_21\.sky130_fd_sc_hd__mux2_1_1_X
*768 sb_0__1_\.mux_bottom_track_21\.sky130_fd_sc_hd__mux2_1_2_X
*769 sb_0__1_\.mux_bottom_track_21\.sky130_fd_sc_hd__mux2_1_3_X
*770 sb_0__1_\.mux_bottom_track_21\.sky130_fd_sc_hd__mux2_1_4_X
*771 sb_0__1_\.mux_bottom_track_21\.sky130_fd_sc_hd__mux2_1_5_X
*772 sb_0__1_\.mux_bottom_track_29\.out
*773 sb_0__1_\.mux_bottom_track_29\.sky130_fd_sc_hd__mux2_1_0_X
*774 sb_0__1_\.mux_bottom_track_29\.sky130_fd_sc_hd__mux2_1_1_X
*775 sb_0__1_\.mux_bottom_track_29\.sky130_fd_sc_hd__mux2_1_2_X
*776 sb_0__1_\.mux_bottom_track_29\.sky130_fd_sc_hd__mux2_1_3_X
*777 sb_0__1_\.mux_bottom_track_29\.sky130_fd_sc_hd__mux2_1_4_X
*778 sb_0__1_\.mux_bottom_track_29\.sky130_fd_sc_hd__mux2_1_5_X
*779 sb_0__1_\.mux_bottom_track_3\.out
*780 sb_0__1_\.mux_bottom_track_3\.sky130_fd_sc_hd__mux2_1_0_X
*781 sb_0__1_\.mux_bottom_track_3\.sky130_fd_sc_hd__mux2_1_1_X
*782 sb_0__1_\.mux_bottom_track_3\.sky130_fd_sc_hd__mux2_1_2_X
*783 sb_0__1_\.mux_bottom_track_3\.sky130_fd_sc_hd__mux2_1_3_X
*784 sb_0__1_\.mux_bottom_track_3\.sky130_fd_sc_hd__mux2_1_4_X
*785 sb_0__1_\.mux_bottom_track_37\.out
*786 sb_0__1_\.mux_bottom_track_37\.sky130_fd_sc_hd__mux2_1_0_X
*787 sb_0__1_\.mux_bottom_track_37\.sky130_fd_sc_hd__mux2_1_1_X
*788 sb_0__1_\.mux_bottom_track_37\.sky130_fd_sc_hd__mux2_1_2_X
*789 sb_0__1_\.mux_bottom_track_37\.sky130_fd_sc_hd__mux2_1_3_X
*790 sb_0__1_\.mux_bottom_track_37\.sky130_fd_sc_hd__mux2_1_4_X
*791 sb_0__1_\.mux_bottom_track_45\.out
*792 sb_0__1_\.mux_bottom_track_45\.sky130_fd_sc_hd__mux2_1_0_X
*793 sb_0__1_\.mux_bottom_track_45\.sky130_fd_sc_hd__mux2_1_1_X
*794 sb_0__1_\.mux_bottom_track_45\.sky130_fd_sc_hd__mux2_1_2_X
*795 sb_0__1_\.mux_bottom_track_45\.sky130_fd_sc_hd__mux2_1_3_X
*796 sb_0__1_\.mux_bottom_track_5\.out
*797 sb_0__1_\.mux_bottom_track_5\.sky130_fd_sc_hd__mux2_1_0_X
*798 sb_0__1_\.mux_bottom_track_5\.sky130_fd_sc_hd__mux2_1_1_X
*799 sb_0__1_\.mux_bottom_track_5\.sky130_fd_sc_hd__mux2_1_2_X
*800 sb_0__1_\.mux_bottom_track_5\.sky130_fd_sc_hd__mux2_1_3_X
*801 sb_0__1_\.mux_bottom_track_5\.sky130_fd_sc_hd__mux2_1_4_X
*802 sb_0__1_\.mux_bottom_track_5\.sky130_fd_sc_hd__mux2_1_5_X
*803 sb_0__1_\.mux_bottom_track_53\.out
*804 sb_0__1_\.mux_bottom_track_53\.sky130_fd_sc_hd__mux2_1_0_X
*805 sb_0__1_\.mux_bottom_track_53\.sky130_fd_sc_hd__mux2_1_1_X
*806 sb_0__1_\.mux_bottom_track_53\.sky130_fd_sc_hd__mux2_1_2_X
*807 sb_0__1_\.mux_bottom_track_7\.out
*808 sb_0__1_\.mux_bottom_track_7\.sky130_fd_sc_hd__mux2_1_0_X
*809 sb_0__1_\.mux_bottom_track_7\.sky130_fd_sc_hd__mux2_1_1_X
*810 sb_0__1_\.mux_bottom_track_7\.sky130_fd_sc_hd__mux2_1_2_X
*811 sb_0__1_\.mux_bottom_track_7\.sky130_fd_sc_hd__mux2_1_3_X
*812 sb_0__1_\.mux_bottom_track_7\.sky130_fd_sc_hd__mux2_1_4_X
*813 sb_0__1_\.mux_bottom_track_7\.sky130_fd_sc_hd__mux2_1_5_X
*814 sb_0__1_\.mux_bottom_track_7\.sky130_fd_sc_hd__mux2_1_6_X
*815 sb_0__1_\.mux_right_track_0\.out
*816 sb_0__1_\.mux_right_track_0\.sky130_fd_sc_hd__mux2_1_0_X
*817 sb_0__1_\.mux_right_track_0\.sky130_fd_sc_hd__mux2_1_1_X
*818 sb_0__1_\.mux_right_track_0\.sky130_fd_sc_hd__mux2_1_2_X
*819 sb_0__1_\.mux_right_track_0\.sky130_fd_sc_hd__mux2_1_3_X
*820 sb_0__1_\.mux_right_track_0\.sky130_fd_sc_hd__mux2_1_4_X
*821 sb_0__1_\.mux_right_track_10\.out
*822 sb_0__1_\.mux_right_track_10\.sky130_fd_sc_hd__mux2_1_0_X
*823 sb_0__1_\.mux_right_track_10\.sky130_fd_sc_hd__mux2_1_1_X
*824 sb_0__1_\.mux_right_track_10\.sky130_fd_sc_hd__mux2_1_2_X
*825 sb_0__1_\.mux_right_track_10\.sky130_fd_sc_hd__mux2_1_3_X
*826 sb_0__1_\.mux_right_track_10\.sky130_fd_sc_hd__mux2_1_4_X
*827 sb_0__1_\.mux_right_track_12\.out
*828 sb_0__1_\.mux_right_track_12\.sky130_fd_sc_hd__mux2_1_0_X
*829 sb_0__1_\.mux_right_track_12\.sky130_fd_sc_hd__mux2_1_1_X
*830 sb_0__1_\.mux_right_track_12\.sky130_fd_sc_hd__mux2_1_2_X
*831 sb_0__1_\.mux_right_track_12\.sky130_fd_sc_hd__mux2_1_3_X
*832 sb_0__1_\.mux_right_track_14\.out
*833 sb_0__1_\.mux_right_track_14\.sky130_fd_sc_hd__mux2_1_0_X
*834 sb_0__1_\.mux_right_track_14\.sky130_fd_sc_hd__mux2_1_1_X
*835 sb_0__1_\.mux_right_track_14\.sky130_fd_sc_hd__mux2_1_2_X
*836 sb_0__1_\.mux_right_track_14\.sky130_fd_sc_hd__mux2_1_3_X
*837 sb_0__1_\.mux_right_track_16\.out
*838 sb_0__1_\.mux_right_track_16\.sky130_fd_sc_hd__mux2_1_0_X
*839 sb_0__1_\.mux_right_track_16\.sky130_fd_sc_hd__mux2_1_1_X
*840 sb_0__1_\.mux_right_track_16\.sky130_fd_sc_hd__mux2_1_2_X
*841 sb_0__1_\.mux_right_track_16\.sky130_fd_sc_hd__mux2_1_3_X
*842 sb_0__1_\.mux_right_track_18\.out
*843 sb_0__1_\.mux_right_track_18\.sky130_fd_sc_hd__mux2_1_0_X
*844 sb_0__1_\.mux_right_track_18\.sky130_fd_sc_hd__mux2_1_1_X
*845 sb_0__1_\.mux_right_track_18\.sky130_fd_sc_hd__mux2_1_2_X
*846 sb_0__1_\.mux_right_track_18\.sky130_fd_sc_hd__mux2_1_3_X
*847 sb_0__1_\.mux_right_track_2\.out
*848 sb_0__1_\.mux_right_track_2\.sky130_fd_sc_hd__mux2_1_0_X
*849 sb_0__1_\.mux_right_track_2\.sky130_fd_sc_hd__mux2_1_1_X
*850 sb_0__1_\.mux_right_track_2\.sky130_fd_sc_hd__mux2_1_2_X
*851 sb_0__1_\.mux_right_track_2\.sky130_fd_sc_hd__mux2_1_3_X
*852 sb_0__1_\.mux_right_track_2\.sky130_fd_sc_hd__mux2_1_4_X
*853 sb_0__1_\.mux_right_track_2\.sky130_fd_sc_hd__mux2_1_5_X
*854 sb_0__1_\.mux_right_track_20\.out
*855 sb_0__1_\.mux_right_track_20\.sky130_fd_sc_hd__mux2_1_0_X
*856 sb_0__1_\.mux_right_track_20\.sky130_fd_sc_hd__mux2_1_1_X
*857 sb_0__1_\.mux_right_track_20\.sky130_fd_sc_hd__mux2_1_2_X
*858 sb_0__1_\.mux_right_track_20\.sky130_fd_sc_hd__mux2_1_3_X
*859 sb_0__1_\.mux_right_track_22\.out
*860 sb_0__1_\.mux_right_track_22\.sky130_fd_sc_hd__mux2_1_0_X
*861 sb_0__1_\.mux_right_track_22\.sky130_fd_sc_hd__mux2_1_1_X
*862 sb_0__1_\.mux_right_track_22\.sky130_fd_sc_hd__mux2_1_2_X
*863 sb_0__1_\.mux_right_track_22\.sky130_fd_sc_hd__mux2_1_3_X
*864 sb_0__1_\.mux_right_track_24\.out
*865 sb_0__1_\.mux_right_track_24\.sky130_fd_sc_hd__mux2_1_0_X
*866 sb_0__1_\.mux_right_track_24\.sky130_fd_sc_hd__mux2_1_1_X
*867 sb_0__1_\.mux_right_track_24\.sky130_fd_sc_hd__mux2_1_2_X
*868 sb_0__1_\.mux_right_track_26\.out
*869 sb_0__1_\.mux_right_track_26\.sky130_fd_sc_hd__mux2_1_0_X
*870 sb_0__1_\.mux_right_track_26\.sky130_fd_sc_hd__mux2_1_1_X