*SPEF "ieee 1481-1999"
*DESIGN "left_tile"
*DATE "11:11:11 Fri 11 11, 1111"
*VENDOR "OpenRCX"
*PROGRAM "Parallel Extraction"
*VERSION "1.0"
*DESIGN_FLOW "NAME_SCOPE LOCAL" "PIN_CAP NONE"
*DIVIDER /
*DELIMITER :
*BUS_DELIMITER []
*T_UNIT 1 NS
*C_UNIT 1 PF
*R_UNIT 1 OHM
*L_UNIT 1 HENRY

*NAME_MAP
*3 ccff_head
*4 ccff_head_0
*5 ccff_tail
*6 ccff_tail_0
*7 chanx_right_in[0]
*8 chanx_right_in[10]
*9 chanx_right_in[11]
*10 chanx_right_in[12]
*11 chanx_right_in[13]
*12 chanx_right_in[14]
*13 chanx_right_in[15]
*14 chanx_right_in[16]
*15 chanx_right_in[17]
*16 chanx_right_in[18]
*17 chanx_right_in[19]
*18 chanx_right_in[1]
*19 chanx_right_in[20]
*20 chanx_right_in[21]
*21 chanx_right_in[22]
*22 chanx_right_in[23]
*23 chanx_right_in[24]
*24 chanx_right_in[25]
*25 chanx_right_in[26]
*26 chanx_right_in[27]
*27 chanx_right_in[28]
*28 chanx_right_in[29]
*29 chanx_right_in[2]
*30 chanx_right_in[3]
*31 chanx_right_in[4]
*32 chanx_right_in[5]
*33 chanx_right_in[6]
*34 chanx_right_in[7]
*35 chanx_right_in[8]
*36 chanx_right_in[9]
*37 net210
*38 chanx_right_out[10]
*39 chanx_right_out[11]
*40 chanx_right_out[12]
*41 chanx_right_out[13]
*42 chanx_right_out[14]
*43 chanx_right_out[15]
*44 chanx_right_out[16]
*45 chanx_right_out[17]
*46 chanx_right_out[18]
*47 chanx_right_out[19]
*48 chanx_right_out[1]
*49 chanx_right_out[20]
*50 chanx_right_out[21]
*51 chanx_right_out[22]
*52 chanx_right_out[23]
*53 chanx_right_out[24]
*54 chanx_right_out[25]
*55 chanx_right_out[26]
*56 chanx_right_out[27]
*57 chanx_right_out[28]
*58 chanx_right_out[29]
*59 chanx_right_out[2]
*60 chanx_right_out[3]
*61 chanx_right_out[4]
*62 chanx_right_out[5]
*63 chanx_right_out[6]
*64 chanx_right_out[7]
*65 chanx_right_out[8]
*66 chanx_right_out[9]
*67 chany_bottom_in[0]
*68 chany_bottom_in[10]
*69 chany_bottom_in[11]
*70 chany_bottom_in[12]
*71 chany_bottom_in[13]
*72 chany_bottom_in[14]
*73 chany_bottom_in[15]
*74 chany_bottom_in[16]
*75 chany_bottom_in[17]
*76 chany_bottom_in[18]
*77 chany_bottom_in[19]
*78 chany_bottom_in[1]
*79 chany_bottom_in[20]
*80 chany_bottom_in[21]
*81 chany_bottom_in[22]
*82 chany_bottom_in[23]
*83 chany_bottom_in[24]
*84 chany_bottom_in[25]
*85 chany_bottom_in[26]
*86 chany_bottom_in[27]
*87 chany_bottom_in[28]
*88 chany_bottom_in[29]
*89 chany_bottom_in[2]
*90 chany_bottom_in[3]
*91 chany_bottom_in[4]
*92 chany_bottom_in[5]
*93 chany_bottom_in[6]
*94 chany_bottom_in[7]
*95 chany_bottom_in[8]
*96 chany_bottom_in[9]
*97 chany_bottom_out[0]
*98 chany_bottom_out[10]
*99 chany_bottom_out[11]
*100 chany_bottom_out[12]
*101 chany_bottom_out[13]
*102 chany_bottom_out[14]
*103 chany_bottom_out[15]
*104 chany_bottom_out[16]
*105 chany_bottom_out[17]
*106 chany_bottom_out[18]
*107 chany_bottom_out[19]
*108 chany_bottom_out[1]
*109 chany_bottom_out[20]
*110 chany_bottom_out[21]
*111 chany_bottom_out[22]
*112 chany_bottom_out[23]
*113 chany_bottom_out[24]
*114 chany_bottom_out[25]
*115 chany_bottom_out[26]
*116 chany_bottom_out[27]
*117 chany_bottom_out[28]
*118 chany_bottom_out[29]
*119 chany_bottom_out[2]
*120 chany_bottom_out[3]
*121 chany_bottom_out[4]
*122 chany_bottom_out[5]
*123 chany_bottom_out[6]
*124 chany_bottom_out[7]
*125 chany_bottom_out[8]
*126 chany_bottom_out[9]
*127 chany_top_in_0[0]
*128 chany_top_in_0[10]
*129 chany_top_in_0[11]
*130 chany_top_in_0[12]
*131 chany_top_in_0[13]
*132 chany_top_in_0[14]
*133 chany_top_in_0[15]
*134 chany_top_in_0[16]
*135 chany_top_in_0[17]
*136 chany_top_in_0[18]
*137 chany_top_in_0[19]
*138 chany_top_in_0[1]
*139 chany_top_in_0[20]
*140 chany_top_in_0[21]
*141 chany_top_in_0[22]
*142 chany_top_in_0[23]
*143 chany_top_in_0[24]
*144 chany_top_in_0[25]
*145 chany_top_in_0[26]
*146 chany_top_in_0[27]
*147 chany_top_in_0[28]
*148 chany_top_in_0[29]
*149 chany_top_in_0[2]
*150 chany_top_in_0[3]
*151 chany_top_in_0[4]
*152 chany_top_in_0[5]
*153 chany_top_in_0[6]
*154 chany_top_in_0[7]
*155 chany_top_in_0[8]
*156 chany_top_in_0[9]
*157 chany_top_out_0[0]
*158 chany_top_out_0[10]
*159 chany_top_out_0[11]
*160 chany_top_out_0[12]
*161 chany_top_out_0[13]
*162 chany_top_out_0[14]
*163 chany_top_out_0[15]
*164 chany_top_out_0[16]
*165 chany_top_out_0[17]
*166 chany_top_out_0[18]
*167 chany_top_out_0[19]
*168 chany_top_out_0[1]
*169 chany_top_out_0[20]
*170 chany_top_out_0[21]
*171 chany_top_out_0[22]
*172 chany_top_out_0[23]
*173 chany_top_out_0[24]
*174 chany_top_out_0[25]
*175 chany_top_out_0[26]
*176 chany_top_out_0[27]
*177 chany_top_out_0[28]
*178 chany_top_out_0[29]
*179 chany_top_out_0[2]
*180 chany_top_out_0[3]
*181 chany_top_out_0[4]
*182 chany_top_out_0[5]
*183 chany_top_out_0[6]
*184 chany_top_out_0[7]
*185 chany_top_out_0[8]
*186 chany_top_out_0[9]
*187 gfpga_pad_io_soc_dir[0]
*188 gfpga_pad_io_soc_dir[1]
*189 gfpga_pad_io_soc_dir[2]
*190 gfpga_pad_io_soc_dir[3]
*191 gfpga_pad_io_soc_in[0]
*192 gfpga_pad_io_soc_in[1]
*193 gfpga_pad_io_soc_in[2]
*194 gfpga_pad_io_soc_in[3]
*195 gfpga_pad_io_soc_out[0]
*196 gfpga_pad_io_soc_out[1]
*197 gfpga_pad_io_soc_out[2]
*198 gfpga_pad_io_soc_out[3]
*199 isol_n
*200 prog_clk
*201 prog_reset
*202 reset
*203 right_bottom_grid_top_width_0_height_0_subtile_0__pin_O_0_
*204 right_bottom_grid_top_width_0_height_0_subtile_0__pin_O_1_
*205 right_bottom_grid_top_width_0_height_0_subtile_0__pin_O_2_
*206 right_bottom_grid_top_width_0_height_0_subtile_0__pin_O_3_
*207 right_bottom_grid_top_width_0_height_0_subtile_0__pin_O_4_
*208 right_bottom_grid_top_width_0_height_0_subtile_0__pin_O_5_
*209 right_bottom_grid_top_width_0_height_0_subtile_0__pin_O_6_
*210 right_bottom_grid_top_width_0_height_0_subtile_0__pin_O_7_
*211 right_width_0_height_0_subtile_0__pin_inpad_0_
*212 right_width_0_height_0_subtile_1__pin_inpad_0_
*213 right_width_0_height_0_subtile_2__pin_inpad_0_
*214 right_width_0_height_0_subtile_3__pin_inpad_0_
*215 test_enable
*216 top_left_grid_right_width_0_height_0_subtile_0__pin_inpad_0_
*217 top_left_grid_right_width_0_height_0_subtile_1__pin_inpad_0_
*218 top_left_grid_right_width_0_height_0_subtile_2__pin_inpad_0_
*219 top_left_grid_right_width_0_height_0_subtile_3__pin_inpad_0_
*220 cby_0__1_\.cby_0__1_\.ccff_tail
*221 cby_0__1_\.cby_0__1_\.left_grid_right_width_0_height_0_subtile_0__pin_outpad_0_
*222 cby_0__1_\.cby_0__1_\.left_grid_right_width_0_height_0_subtile_1__pin_outpad_0_
*223 cby_0__1_\.cby_0__1_\.left_grid_right_width_0_height_0_subtile_2__pin_outpad_0_
*224 cby_0__1_\.cby_0__1_\.left_grid_right_width_0_height_0_subtile_3__pin_outpad_0_
*225 cby_0__1_\.cby_0__1_\.mem_right_ipin_0\.ccff_tail
*226 cby_0__1_\.cby_0__1_\.mem_right_ipin_0\.mem_out\[0\]
*227 cby_0__1_\.cby_0__1_\.mem_right_ipin_0\.mem_out\[1\]
*228 cby_0__1_\.cby_0__1_\.mem_right_ipin_0\.mem_out\[2\]
*229 cby_0__1_\.cby_0__1_\.mem_right_ipin_1\.ccff_tail
*230 cby_0__1_\.cby_0__1_\.mem_right_ipin_1\.mem_out\[0\]
*231 cby_0__1_\.cby_0__1_\.mem_right_ipin_1\.mem_out\[1\]
*232 cby_0__1_\.cby_0__1_\.mem_right_ipin_1\.mem_out\[2\]
*233 cby_0__1_\.cby_0__1_\.mem_right_ipin_2\.ccff_tail
*234 cby_0__1_\.cby_0__1_\.mem_right_ipin_2\.mem_out\[0\]
*235 cby_0__1_\.cby_0__1_\.mem_right_ipin_2\.mem_out\[1\]
*236 cby_0__1_\.cby_0__1_\.mem_right_ipin_2\.mem_out\[2\]
*237 cby_0__1_\.cby_0__1_\.mem_right_ipin_3\.mem_out\[0\]
*238 cby_0__1_\.cby_0__1_\.mem_right_ipin_3\.mem_out\[1\]
*239 cby_0__1_\.cby_0__1_\.mem_right_ipin_3\.mem_out\[2\]
*240 cby_0__1_\.cby_0__1_\.mux_right_ipin_0\.sky130_fd_sc_hd__mux2_1_0_X
*241 cby_0__1_\.cby_0__1_\.mux_right_ipin_0\.sky130_fd_sc_hd__mux2_1_10_X
*242 cby_0__1_\.cby_0__1_\.mux_right_ipin_0\.sky130_fd_sc_hd__mux2_1_11_X
*243 cby_0__1_\.cby_0__1_\.mux_right_ipin_0\.sky130_fd_sc_hd__mux2_1_1_X
*244 cby_0__1_\.cby_0__1_\.mux_right_ipin_0\.sky130_fd_sc_hd__mux2_1_2_X
*245 cby_0__1_\.cby_0__1_\.mux_right_ipin_0\.sky130_fd_sc_hd__mux2_1_3_X
*246 cby_0__1_\.cby_0__1_\.mux_right_ipin_0\.sky130_fd_sc_hd__mux2_1_4_X
*247 cby_0__1_\.cby_0__1_\.mux_right_ipin_0\.sky130_fd_sc_hd__mux2_1_5_X
*248 cby_0__1_\.cby_0__1_\.mux_right_ipin_0\.sky130_fd_sc_hd__mux2_1_6_X
*249 cby_0__1_\.cby_0__1_\.mux_right_ipin_0\.sky130_fd_sc_hd__mux2_1_7_X
*250 cby_0__1_\.cby_0__1_\.mux_right_ipin_0\.sky130_fd_sc_hd__mux2_1_8_X
*251 cby_0__1_\.cby_0__1_\.mux_right_ipin_0\.sky130_fd_sc_hd__mux2_1_9_X
*252 cby_0__1_\.cby_0__1_\.mux_right_ipin_1\.sky130_fd_sc_hd__mux2_1_0_X
*253 cby_0__1_\.cby_0__1_\.mux_right_ipin_1\.sky130_fd_sc_hd__mux2_1_10_X
*254 cby_0__1_\.cby_0__1_\.mux_right_ipin_1\.sky130_fd_sc_hd__mux2_1_11_X
*255 cby_0__1_\.cby_0__1_\.mux_right_ipin_1\.sky130_fd_sc_hd__mux2_1_1_X
*256 cby_0__1_\.cby_0__1_\.mux_right_ipin_1\.sky130_fd_sc_hd__mux2_1_2_X
*257 cby_0__1_\.cby_0__1_\.mux_right_ipin_1\.sky130_fd_sc_hd__mux2_1_3_X
*258 cby_0__1_\.cby_0__1_\.mux_right_ipin_1\.sky130_fd_sc_hd__mux2_1_4_X
*259 cby_0__1_\.cby_0__1_\.mux_right_ipin_1\.sky130_fd_sc_hd__mux2_1_5_X
*260 cby_0__1_\.cby_0__1_\.mux_right_ipin_1\.sky130_fd_sc_hd__mux2_1_6_X
*261 cby_0__1_\.cby_0__1_\.mux_right_ipin_1\.sky130_fd_sc_hd__mux2_1_7_X
*262 cby_0__1_\.cby_0__1_\.mux_right_ipin_1\.sky130_fd_sc_hd__mux2_1_8_X
*263 cby_0__1_\.cby_0__1_\.mux_right_ipin_1\.sky130_fd_sc_hd__mux2_1_9_X
*264 cby_0__1_\.cby_0__1_\.mux_right_ipin_2\.sky130_fd_sc_hd__mux2_1_0_X
*265 cby_0__1_\.cby_0__1_\.mux_right_ipin_2\.sky130_fd_sc_hd__mux2_1_10_X
*266 cby_0__1_\.cby_0__1_\.mux_right_ipin_2\.sky130_fd_sc_hd__mux2_1_11_X
*267 cby_0__1_\.cby_0__1_\.mux_right_ipin_2\.sky130_fd_sc_hd__mux2_1_1_X
*268 cby_0__1_\.cby_0__1_\.mux_right_ipin_2\.sky130_fd_sc_hd__mux2_1_2_X
*269 cby_0__1_\.cby_0__1_\.mux_right_ipin_2\.sky130_fd_sc_hd__mux2_1_3_X
*270 cby_0__1_\.cby_0__1_\.mux_right_ipin_2\.sky130_fd_sc_hd__mux2_1_4_X
*271 cby_0__1_\.cby_0__1_\.mux_right_ipin_2\.sky130_fd_sc_hd__mux2_1_5_X
*272 cby_0__1_\.cby_0__1_\.mux_right_ipin_2\.sky130_fd_sc_hd__mux2_1_6_X
*273 cby_0__1_\.cby_0__1_\.mux_right_ipin_2\.sky130_fd_sc_hd__mux2_1_7_X
*274 cby_0__1_\.cby_0__1_\.mux_right_ipin_2\.sky130_fd_sc_hd__mux2_1_8_X
*275 cby_0__1_\.cby_0__1_\.mux_right_ipin_2\.sky130_fd_sc_hd__mux2_1_9_X
*276 cby_0__1_\.cby_0__1_\.mux_right_ipin_3\.sky130_fd_sc_hd__mux2_1_0_X
*277 cby_0__1_\.cby_0__1_\.mux_right_ipin_3\.sky130_fd_sc_hd__mux2_1_10_X
*278 cby_0__1_\.cby_0__1_\.mux_right_ipin_3\.sky130_fd_sc_hd__mux2_1_11_X
*279 cby_0__1_\.cby_0__1_\.mux_right_ipin_3\.sky130_fd_sc_hd__mux2_1_1_X
*280 cby_0__1_\.cby_0__1_\.mux_right_ipin_3\.sky130_fd_sc_hd__mux2_1_2_X
*281 cby_0__1_\.cby_0__1_\.mux_right_ipin_3\.sky130_fd_sc_hd__mux2_1_3_X
*282 cby_0__1_\.cby_0__1_\.mux_right_ipin_3\.sky130_fd_sc_hd__mux2_1_4_X
*283 cby_0__1_\.cby_0__1_\.mux_right_ipin_3\.sky130_fd_sc_hd__mux2_1_5_X
*284 cby_0__1_\.cby_0__1_\.mux_right_ipin_3\.sky130_fd_sc_hd__mux2_1_6_X
*285 cby_0__1_\.cby_0__1_\.mux_right_ipin_3\.sky130_fd_sc_hd__mux2_1_7_X
*286 cby_0__1_\.cby_0__1_\.mux_right_ipin_3\.sky130_fd_sc_hd__mux2_1_8_X
*287 cby_0__1_\.cby_0__1_\.mux_right_ipin_3\.sky130_fd_sc_hd__mux2_1_9_X
*288 cby_0__1_\.grid_io_left_left_0__1_\.logical_tile_io_mode_io__0\.ccff_tail
*289 cby_0__1_\.grid_io_left_left_0__1_\.logical_tile_io_mode_io__0\.gfpga_pad_io_soc_dir
*290 cby_0__1_\.grid_io_left_left_0__1_\.logical_tile_io_mode_io__0\.gfpga_pad_io_soc_out
*291 cby_0__1_\.grid_io_left_left_0__1_\.logical_tile_io_mode_io__0\.logical_tile_io_mode_physical__iopad_0\.io_0_\.SOC_DIR_N
*292 cby_0__1_\.grid_io_left_left_0__1_\.logical_tile_io_mode_io__1\.ccff_tail
*293 cby_0__1_\.grid_io_left_left_0__1_\.logical_tile_io_mode_io__1\.gfpga_pad_io_soc_dir
*294 cby_0__1_\.grid_io_left_left_0__1_\.logical_tile_io_mode_io__1\.gfpga_pad_io_soc_out
*295 cby_0__1_\.grid_io_left_left_0__1_\.logical_tile_io_mode_io__1\.logical_tile_io_mode_physical__iopad_0\.io_0_\.SOC_DIR_N
*296 cby_0__1_\.grid_io_left_left_0__1_\.logical_tile_io_mode_io__2\.ccff_tail
*297 cby_0__1_\.grid_io_left_left_0__1_\.logical_tile_io_mode_io__2\.gfpga_pad_io_soc_dir
*298 cby_0__1_\.grid_io_left_left_0__1_\.logical_tile_io_mode_io__2\.gfpga_pad_io_soc_out
*299 cby_0__1_\.grid_io_left_left_0__1_\.logical_tile_io_mode_io__2\.logical_tile_io_mode_physical__iopad_0\.io_0_\.SOC_DIR_N
*300 cby_0__1_\.grid_io_left_left_0__1_\.logical_tile_io_mode_io__3\.gfpga_pad_io_soc_dir
*301 cby_0__1_\.grid_io_left_left_0__1_\.logical_tile_io_mode_io__3\.gfpga_pad_io_soc_out
*302 cby_0__1_\.grid_io_left_left_0__1_\.logical_tile_io_mode_io__3\.logical_tile_io_mode_physical__iopad_0\.io_0_\.SOC_DIR_N
*303 clknet_0_prog_clk
*304 clknet_4_0_0_prog_clk
*305 clknet_4_10_0_prog_clk
*306 clknet_4_11_0_prog_clk
*307 clknet_4_12_0_prog_clk
*308 clknet_4_13_0_prog_clk
*309 clknet_4_14_0_prog_clk
*310 clknet_4_15_0_prog_clk
*311 clknet_4_1_0_prog_clk
*312 clknet_4_2_0_prog_clk
*313 clknet_4_3_0_prog_clk
*314 clknet_4_4_0_prog_clk
*315 clknet_4_5_0_prog_clk
*316 clknet_4_6_0_prog_clk
*317 clknet_4_7_0_prog_clk
*318 clknet_4_8_0_prog_clk
*319 clknet_4_9_0_prog_clk
*320 net1
*321 net10
*322 net100
*323 net101
*324 net102
*325 net103
*326 net104
*327 net105
*328 net106
*329 net107
*330 net108
*331 net109
*332 net11
*333 net110
*334 net111
*335 net112
*336 net113
*337 net114
*338 net115
*339 net116
*340 net117
*341 net118
*342 net119
*343 net12
*344 net120
*345 net121
*346 net122
*347 net123
*348 net124
*349 net125
*350 net126
*351 net127
*352 net128
*353 net129
*354 net13
*355 net130
*356 net131
*357 net132
*358 net133
*359 net134
*360 net135
*361 net136
*362 net137
*363 net138
*364 net139
*365 net14
*366 net140
*367 net141
*368 net142
*369 net143
*370 net144
*371 net145
*372 net146
*373 net147
*374 net148
*375 net149
*376 net15
*377 net150
*378 net151
*379 net152
*380 net153
*381 net154
*382 net155
*383 net156
*384 net157
*385 net158
*386 net159
*387 net16
*388 net160
*389 net161
*390 net162
*391 net163
*392 net164
*393 net165
*394 net166
*395 net167
*396 net168
*397 net169
*398 net17
*399 net170
*400 net171
*401 net172
*402 net173
*403 net174
*404 net175
*405 net176
*406 net177
*407 net178
*408 net179
*409 net18
*410 net180
*411 net181
*412 net182
*413 net183
*414 net184
*415 net185
*416 net186
*417 net187
*418 net188
*419 net189
*420 net19
*421 net190
*422 net191
*423 net192
*424 net193
*425 net194
*426 net195
*427 net196
*428 net197
*429 net198
*430 net199
*431 net2
*432 net20
*433 net200
*434 net201
*435 net202
*436 net203
*437 net204
*438 net205
*439 net206
*440 net207
*441 net208
*442 net209
*443 net21
*444 net211
*445 net212
*446 net213
*447 net214
*448 net215
*449 net216
*450 net217
*451 net218
*452 net219
*453 net22
*454 net220
*455 net221
*456 net222
*457 net223
*458 net224
*459 net225
*460 net226
*461 net227
*462 net228
*463 net229
*464 net23
*465 net230
*466 net231
*467 net232
*468 net233
*469 net234
*470 net235
*471 net236
*472 net237
*473 net238
*474 net239
*475 net24
*476 net240
*477 net241
*478 net242
*479 net243
*480 net244
*481 net245
*482 net246
*483 net247
*484 net248
*485 net249
*486 net25
*487 net250
*488 net251
*489 net252
*490 net253
*491 net254
*492 net255
*493 net256
*494 net257
*495 net258
*496 net259
*497 net26
*498 net260
*499 net261
*500 net262
*501 net263
*502 net264
*503 net27
*504 net28
*505 net29
*506 net3
*507 net30
*508 net31
*509 net32
*510 net33
*511 net34
*512 net35
*513 net36
*514 net37
*515 net38
*516 net39
*517 net4
*518 net40
*519 net41
*520 net42
*521 net43
*522 net44
*523 net45
*524 net46
*525 net47
*526 net48
*527 net49
*528 net5
*529 net50
*530 net51
*531 net52
*532 net53
*533 net54
*534 net55
*535 net56
*536 net57
*537 net58
*538 net59
*539 net6
*540 net60
*541 net61
*542 net62
*543 net63
*544 net64
*545 net65
*546 net66
*547 net67
*548 net68
*549 net69
*550 net7
*551 net70
*552 net71
*553 net72
*554 net73
*555 net74
*556 net75
*557 net76
*558 net77
*559 net78
*560 net79
*561 net8
*562 net80
*563 net81
*564 net82
*565 net83
*566 net84
*567 net85
*568 net86
*569 net87
*570 net88
*571 net89
*572 net9
*573 net90
*574 net91
*575 net92
*576 net93
*577 net94
*578 net95
*579 net96
*580 net97
*581 net98
*582 net99
*583 sb_0__1_\.mem_bottom_track_1\.ccff_head
*584 sb_0__1_\.mem_bottom_track_1\.ccff_tail
*585 sb_0__1_\.mem_bottom_track_1\.mem_out\[0\]
*586 sb_0__1_\.mem_bottom_track_1\.mem_out\[1\]
*587 sb_0__1_\.mem_bottom_track_11\.ccff_head
*588 sb_0__1_\.mem_bottom_track_11\.ccff_tail
*589 sb_0__1_\.mem_bottom_track_11\.mem_out\[0\]
*590 sb_0__1_\.mem_bottom_track_11\.mem_out\[1\]
*591 sb_0__1_\.mem_bottom_track_13\.ccff_tail
*592 sb_0__1_\.mem_bottom_track_13\.mem_out\[0\]
*593 sb_0__1_\.mem_bottom_track_13\.mem_out\[1\]
*594 sb_0__1_\.mem_bottom_track_21\.ccff_tail
*595 sb_0__1_\.mem_bottom_track_21\.mem_out\[0\]
*596 sb_0__1_\.mem_bottom_track_21\.mem_out\[1\]
*597 sb_0__1_\.mem_bottom_track_29\.ccff_tail
*598 sb_0__1_\.mem_bottom_track_29\.mem_out\[0\]
*599 sb_0__1_\.mem_bottom_track_29\.mem_out\[1\]
*600 sb_0__1_\.mem_bottom_track_3\.ccff_tail
*601 sb_0__1_\.mem_bottom_track_3\.mem_out\[0\]
*602 sb_0__1_\.mem_bottom_track_3\.mem_out\[1\]
*603 sb_0__1_\.mem_bottom_track_37\.ccff_tail
*604 sb_0__1_\.mem_bottom_track_37\.mem_out\[0\]
*605 sb_0__1_\.mem_bottom_track_37\.mem_out\[1\]
*606 sb_0__1_\.mem_bottom_track_45\.ccff_tail
*607 sb_0__1_\.mem_bottom_track_45\.mem_out\[0\]
*608 sb_0__1_\.mem_bottom_track_45\.mem_out\[1\]
*609 sb_0__1_\.mem_bottom_track_5\.ccff_tail
*610 sb_0__1_\.mem_bottom_track_5\.mem_out\[0\]
*611 sb_0__1_\.mem_bottom_track_5\.mem_out\[1\]
*612 sb_0__1_\.mem_bottom_track_53\.mem_out\[0\]
*613 sb_0__1_\.mem_bottom_track_7\.mem_out\[0\]
*614 sb_0__1_\.mem_bottom_track_7\.mem_out\[1\]
*615 sb_0__1_\.mem_right_track_0\.ccff_head
*616 sb_0__1_\.mem_right_track_0\.ccff_tail
*617 sb_0__1_\.mem_right_track_0\.mem_out\[0\]
*618 sb_0__1_\.mem_right_track_0\.mem_out\[1\]
*619 sb_0__1_\.mem_right_track_10\.ccff_head
*620 sb_0__1_\.mem_right_track_10\.ccff_tail
*621 sb_0__1_\.mem_right_track_10\.mem_out\[0\]
*622 sb_0__1_\.mem_right_track_10\.mem_out\[1\]
*623 sb_0__1_\.mem_right_track_12\.ccff_tail
*624 sb_0__1_\.mem_right_track_12\.mem_out\[0\]
*625 sb_0__1_\.mem_right_track_12\.mem_out\[1\]
*626 sb_0__1_\.mem_right_track_14\.ccff_tail
*627 sb_0__1_\.mem_right_track_14\.mem_out\[0\]
*628 sb_0__1_\.mem_right_track_14\.mem_out\[1\]
*629 sb_0__1_\.mem_right_track_16\.ccff_tail
*630 sb_0__1_\.mem_right_track_16\.mem_out\[0\]
*631 sb_0__1_\.mem_right_track_16\.mem_out\[1\]
*632 sb_0__1_\.mem_right_track_18\.ccff_tail
*633 sb_0__1_\.mem_right_track_18\.mem_out\[0\]
*634 sb_0__1_\.mem_right_track_18\.mem_out\[1\]
*635 sb_0__1_\.mem_right_track_2\.ccff_tail
*636 sb_0__1_\.mem_right_track_2\.mem_out\[0\]
*637 sb_0__1_\.mem_right_track_2\.mem_out\[1\]
*638 sb_0__1_\.mem_right_track_20\.ccff_tail
*639 sb_0__1_\.mem_right_track_20\.mem_out\[0\]
*640 sb_0__1_\.mem_right_track_20\.mem_out\[1\]
*641 sb_0__1_\.mem_right_track_22\.ccff_tail
*642 sb_0__1_\.mem_right_track_22\.mem_out\[0\]
*643 sb_0__1_\.mem_right_track_22\.mem_out\[1\]
*644 sb_0__1_\.mem_right_track_24\.ccff_tail
*645 sb_0__1_\.mem_right_track_24\.mem_out\[0\]
*646 sb_0__1_\.mem_right_track_26\.ccff_tail
*647 sb_0__1_\.mem_right_track_26\.mem_out\[0\]
*648 sb_0__1_\.mem_right_track_28\.ccff_tail
*649 sb_0__1_\.mem_right_track_28\.mem_out\[0\]
*650 sb_0__1_\.mem_right_track_30\.ccff_tail
*651 sb_0__1_\.mem_right_track_30\.mem_out\[0\]
*652 sb_0__1_\.mem_right_track_32\.ccff_tail
*653 sb_0__1_\.mem_right_track_32\.mem_out\[0\]
*654 sb_0__1_\.mem_right_track_34\.ccff_tail
*655 sb_0__1_\.mem_right_track_34\.mem_out\[0\]
*656 sb_0__1_\.mem_right_track_36\.ccff_tail
*657 sb_0__1_\.mem_right_track_36\.mem_out\[0\]
*658 sb_0__1_\.mem_right_track_36\.mem_out\[1\]
*659 sb_0__1_\.mem_right_track_38\.ccff_tail
*660 sb_0__1_\.mem_right_track_38\.mem_out\[0\]
*661 sb_0__1_\.mem_right_track_4\.ccff_tail
*662 sb_0__1_\.mem_right_track_4\.mem_out\[0\]
*663 sb_0__1_\.mem_right_track_4\.mem_out\[1\]
*664 sb_0__1_\.mem_right_track_40\.ccff_tail
*665 sb_0__1_\.mem_right_track_40\.mem_out\[0\]
*666 sb_0__1_\.mem_right_track_44\.ccff_tail
*667 sb_0__1_\.mem_right_track_44\.mem_out\[0\]
*668 sb_0__1_\.mem_right_track_46\.ccff_tail
*669 sb_0__1_\.mem_right_track_46\.mem_out\[0\]
*670 sb_0__1_\.mem_right_track_48\.ccff_tail
*671 sb_0__1_\.mem_right_track_48\.mem_out\[0\]
*672 sb_0__1_\.mem_right_track_50\.ccff_tail
*673 sb_0__1_\.mem_right_track_50\.mem_out\[0\]
*674 sb_0__1_\.mem_right_track_52\.ccff_tail
*675 sb_0__1_\.mem_right_track_52\.mem_out\[0\]
*676 sb_0__1_\.mem_right_track_54\.ccff_tail
*677 sb_0__1_\.mem_right_track_54\.mem_out\[0\]
*678 sb_0__1_\.mem_right_track_56\.mem_out\[0\]
*679 sb_0__1_\.mem_right_track_6\.ccff_tail
*680 sb_0__1_\.mem_right_track_6\.mem_out\[0\]
*681 sb_0__1_\.mem_right_track_6\.mem_out\[1\]
*682 sb_0__1_\.mem_right_track_8\.mem_out\[0\]
*683 sb_0__1_\.mem_right_track_8\.mem_out\[1\]
*684 sb_0__1_\.mem_top_track_0\.ccff_tail
*685 sb_0__1_\.mem_top_track_0\.mem_out\[0\]
*686 sb_0__1_\.mem_top_track_0\.mem_out\[1\]
*687 sb_0__1_\.mem_top_track_10\.ccff_head
*688 sb_0__1_\.mem_top_track_10\.ccff_tail
*689 sb_0__1_\.mem_top_track_10\.mem_out\[0\]
*690 sb_0__1_\.mem_top_track_10\.mem_out\[1\]
*691 sb_0__1_\.mem_top_track_12\.ccff_tail
*692 sb_0__1_\.mem_top_track_12\.mem_out\[0\]
*693 sb_0__1_\.mem_top_track_12\.mem_out\[1\]
*694 sb_0__1_\.mem_top_track_2\.ccff_tail
*695 sb_0__1_\.mem_top_track_2\.mem_out\[0\]
*696 sb_0__1_\.mem_top_track_2\.mem_out\[1\]
*697 sb_0__1_\.mem_top_track_20\.ccff_tail
*698 sb_0__1_\.mem_top_track_20\.mem_out\[0\]
*699 sb_0__1_\.mem_top_track_20\.mem_out\[1\]
*700 sb_0__1_\.mem_top_track_28\.ccff_tail
*701 sb_0__1_\.mem_top_track_28\.mem_out\[0\]
*702 sb_0__1_\.mem_top_track_28\.mem_out\[1\]
*703 sb_0__1_\.mem_top_track_36\.ccff_tail
*704 sb_0__1_\.mem_top_track_36\.mem_out\[0\]
*705 sb_0__1_\.mem_top_track_36\.mem_out\[1\]
*706 sb_0__1_\.mem_top_track_4\.ccff_tail
*707 sb_0__1_\.mem_top_track_4\.mem_out\[0\]
*708 sb_0__1_\.mem_top_track_4\.mem_out\[1\]
*709 sb_0__1_\.mem_top_track_44\.ccff_tail
*710 sb_0__1_\.mem_top_track_44\.mem_out\[0\]
*711 sb_0__1_\.mem_top_track_52\.mem_out\[0\]
*712 sb_0__1_\.mem_top_track_52\.mem_out\[1\]
*713 sb_0__1_\.mem_top_track_6\.mem_out\[0\]
*714 sb_0__1_\.mem_top_track_6\.mem_out\[1\]
*715 sb_0__1_\.mux_bottom_track_1\.out
*716 sb_0__1_\.mux_bottom_track_1\.sky130_fd_sc_hd__mux2_1_0_X
*717 sb_0__1_\.mux_bottom_track_1\.sky130_fd_sc_hd__mux2_1_1_X
*718 sb_0__1_\.mux_bottom_track_1\.sky130_fd_sc_hd__mux2_1_2_X
*719 sb_0__1_\.mux_bottom_track_1\.sky130_fd_sc_hd__mux2_1_3_X
*720 sb_0__1_\.mux_bottom_track_1\.sky130_fd_sc_hd__mux2_1_4_X
*721 sb_0__1_\.mux_bottom_track_1\.sky130_fd_sc_hd__mux2_1_5_X
*722 sb_0__1_\.mux_bottom_track_11\.out
*723 sb_0__1_\.mux_bottom_track_11\.sky130_fd_sc_hd__mux2_1_0_X
*724 sb_0__1_\.mux_bottom_track_11\.sky130_fd_sc_hd__mux2_1_1_X
*725 sb_0__1_\.mux_bottom_track_11\.sky130_fd_sc_hd__mux2_1_2_X
*726 sb_0__1_\.mux_bottom_track_11\.sky130_fd_sc_hd__mux2_1_3_X
*727 sb_0__1_\.mux_bottom_track_11\.sky130_fd_sc_hd__mux2_1_4_X
*728 sb_0__1_\.mux_bottom_track_11\.sky130_fd_sc_hd__mux2_1_5_X
*729 sb_0__1_\.mux_bottom_track_11\.sky130_fd_sc_hd__mux2_1_6_X
*730 sb_0__1_\.mux_bottom_track_13\.out
*731 sb_0__1_\.mux_bottom_track_13\.sky130_fd_sc_hd__mux2_1_0_X
*732 sb_0__1_\.mux_bottom_track_13\.sky130_fd_sc_hd__mux2_1_1_X
*733 sb_0__1_\.mux_bottom_track_13\.sky130_fd_sc_hd__mux2_1_2_X
*734 sb_0__1_\.mux_bottom_track_13\.sky130_fd_sc_hd__mux2_1_3_X
*735 sb_0__1_\.mux_bottom_track_13\.sky130_fd_sc_hd__mux2_1_4_X
*736 sb_0__1_\.mux_bottom_track_13\.sky130_fd_sc_hd__mux2_1_5_X
*737 sb_0__1_\.mux_bottom_track_21\.out
*738 sb_0__1_\.mux_bottom_track_21\.sky130_fd_sc_hd__mux2_1_0_X
*739 sb_0__1_\.mux_bottom_track_21\.sky130_fd_sc_hd__mux2_1_1_X
*740 sb_0__1_\.mux_bottom_track_21\.sky130_fd_sc_hd__mux2_1_2_X
*741 sb_0__1_\.mux_bottom_track_21\.sky130_fd_sc_hd__mux2_1_3_X
*742 sb_0__1_\.mux_bottom_track_21\.sky130_fd_sc_hd__mux2_1_4_X
*743 sb_0__1_\.mux_bottom_track_21\.sky130_fd_sc_hd__mux2_1_5_X
*744 sb_0__1_\.mux_bottom_track_29\.out
*745 sb_0__1_\.mux_bottom_track_29\.sky130_fd_sc_hd__mux2_1_0_X
*746 sb_0__1_\.mux_bottom_track_29\.sky130_fd_sc_hd__mux2_1_1_X
*747 sb_0__1_\.mux_bottom_track_29\.sky130_fd_sc_hd__mux2_1_2_X
*748 sb_0__1_\.mux_bottom_track_29\.sky130_fd_sc_hd__mux2_1_3_X
*749 sb_0__1_\.mux_bottom_track_29\.sky130_fd_sc_hd__mux2_1_4_X
*750 sb_0__1_\.mux_bottom_track_29\.sky130_fd_sc_hd__mux2_1_5_X
*751 sb_0__1_\.mux_bottom_track_3\.out
*752 sb_0__1_\.mux_bottom_track_3\.sky130_fd_sc_hd__mux2_1_0_X
*753 sb_0__1_\.mux_bottom_track_3\.sky130_fd_sc_hd__mux2_1_1_X
*754 sb_0__1_\.mux_bottom_track_3\.sky130_fd_sc_hd__mux2_1_2_X
*755 sb_0__1_\.mux_bottom_track_3\.sky130_fd_sc_hd__mux2_1_3_X
*756 sb_0__1_\.mux_bottom_track_3\.sky130_fd_sc_hd__mux2_1_4_X
*757 sb_0__1_\.mux_bottom_track_37\.out
*758 sb_0__1_\.mux_bottom_track_37\.sky130_fd_sc_hd__mux2_1_0_X
*759 sb_0__1_\.mux_bottom_track_37\.sky130_fd_sc_hd__mux2_1_1_X
*760 sb_0__1_\.mux_bottom_track_37\.sky130_fd_sc_hd__mux2_1_2_X
*761 sb_0__1_\.mux_bottom_track_37\.sky130_fd_sc_hd__mux2_1_3_X
*762 sb_0__1_\.mux_bottom_track_37\.sky130_fd_sc_hd__mux2_1_4_X
*763 sb_0__1_\.mux_bottom_track_45\.out
*764 sb_0__1_\.mux_bottom_track_45\.sky130_fd_sc_hd__mux2_1_0_X
*765 sb_0__1_\.mux_bottom_track_45\.sky130_fd_sc_hd__mux2_1_1_X
*766 sb_0__1_\.mux_bottom_track_45\.sky130_fd_sc_hd__mux2_1_2_X
*767 sb_0__1_\.mux_bottom_track_45\.sky130_fd_sc_hd__mux2_1_3_X
*768 sb_0__1_\.mux_bottom_track_5\.out
*769 sb_0__1_\.mux_bottom_track_5\.sky130_fd_sc_hd__mux2_1_0_X
*770 sb_0__1_\.mux_bottom_track_5\.sky130_fd_sc_hd__mux2_1_1_X
*771 sb_0__1_\.mux_bottom_track_5\.sky130_fd_sc_hd__mux2_1_2_X
*772 sb_0__1_\.mux_bottom_track_5\.sky130_fd_sc_hd__mux2_1_3_X
*773 sb_0__1_\.mux_bottom_track_5\.sky130_fd_sc_hd__mux2_1_4_X
*774 sb_0__1_\.mux_bottom_track_5\.sky130_fd_sc_hd__mux2_1_5_X
*775 sb_0__1_\.mux_bottom_track_53\.out
*776 sb_0__1_\.mux_bottom_track_53\.sky130_fd_sc_hd__mux2_1_0_X
*777 sb_0__1_\.mux_bottom_track_53\.sky130_fd_sc_hd__mux2_1_1_X
*778 sb_0__1_\.mux_bottom_track_53\.sky130_fd_sc_hd__mux2_1_2_X
*779 sb_0__1_\.mux_bottom_track_7\.out
*780 sb_0__1_\.mux_bottom_track_7\.sky130_fd_sc_hd__mux2_1_0_X
*781 sb_0__1_\.mux_bottom_track_7\.sky130_fd_sc_hd__mux2_1_1_X
*782 sb_0__1_\.mux_bottom_track_7\.sky130_fd_sc_hd__mux2_1_2_X
*783 sb_0__1_\.mux_bottom_track_7\.sky130_fd_sc_hd__mux2_1_3_X
*784 sb_0__1_\.mux_bottom_track_7\.sky130_fd_sc_hd__mux2_1_4_X
*785 sb_0__1_\.mux_bottom_track_7\.sky130_fd_sc_hd__mux2_1_5_X
*786 sb_0__1_\.mux_bottom_track_7\.sky130_fd_sc_hd__mux2_1_6_X
*787 sb_0__1_\.mux_right_track_0\.out
*788 sb_0__1_\.mux_right_track_0\.sky130_fd_sc_hd__mux2_1_0_X
*789 sb_0__1_\.mux_right_track_0\.sky130_fd_sc_hd__mux2_1_1_X
*790 sb_0__1_\.mux_right_track_0\.sky130_fd_sc_hd__mux2_1_2_X
*791 sb_0__1_\.mux_right_track_0\.sky130_fd_sc_hd__mux2_1_3_X
*792 sb_0__1_\.mux_right_track_0\.sky130_fd_sc_hd__mux2_1_4_X
*793 sb_0__1_\.mux_right_track_10\.out
*794 sb_0__1_\.mux_right_track_10\.sky130_fd_sc_hd__mux2_1_0_X
*795 sb_0__1_\.mux_right_track_10\.sky130_fd_sc_hd__mux2_1_1_X
*796 sb_0__1_\.mux_right_track_10\.sky130_fd_sc_hd__mux2_1_2_X
*797 sb_0__1_\.mux_right_track_10\.sky130_fd_sc_hd__mux2_1_3_X
*798 sb_0__1_\.mux_right_track_10\.sky130_fd_sc_hd__mux2_1_4_X
*799 sb_0__1_\.mux_right_track_12\.out
*800 sb_0__1_\.mux_right_track_12\.sky130_fd_sc_hd__mux2_1_0_X
*801 sb_0__1_\.mux_right_track_12\.sky130_fd_sc_hd__mux2_1_1_X
*802 sb_0__1_\.mux_right_track_12\.sky130_fd_sc_hd__mux2_1_2_X
*803 sb_0__1_\.mux_right_track_12\.sky130_fd_sc_hd__mux2_1_3_X
*804 sb_0__1_\.mux_right_track_14\.out
*805 sb_0__1_\.mux_right_track_14\.sky130_fd_sc_hd__mux2_1_0_X
*806 sb_0__1_\.mux_right_track_14\.sky130_fd_sc_hd__mux2_1_1_X
*807 sb_0__1_\.mux_right_track_14\.sky130_fd_sc_hd__mux2_1_2_X
*808 sb_0__1_\.mux_right_track_14\.sky130_fd_sc_hd__mux2_1_3_X
*809 sb_0__1_\.mux_right_track_16\.out
*810 sb_0__1_\.mux_right_track_16\.sky130_fd_sc_hd__mux2_1_0_X
*811 sb_0__1_\.mux_right_track_16\.sky130_fd_sc_hd__mux2_1_1_X
*812 sb_0__1_\.mux_right_track_16\.sky130_fd_sc_hd__mux2_1_2_X
*813 sb_0__1_\.mux_right_track_16\.sky130_fd_sc_hd__mux2_1_3_X
*814 sb_0__1_\.mux_right_track_18\.out
*815 sb_0__1_\.mux_right_track_18\.sky130_fd_sc_hd__mux2_1_0_X
*816 sb_0__1_\.mux_right_track_18\.sky130_fd_sc_hd__mux2_1_1_X
*817 sb_0__1_\.mux_right_track_18\.sky130_fd_sc_hd__mux2_1_2_X
*818 sb_0__1_\.mux_right_track_18\.sky130_fd_sc_hd__mux2_1_3_X
*819 sb_0__1_\.mux_right_track_2\.out
*820 sb_0__1_\.mux_right_track_2\.sky130_fd_sc_hd__mux2_1_0_X
*821 sb_0__1_\.mux_right_track_2\.sky130_fd_sc_hd__mux2_1_1_X
*822 sb_0__1_\.mux_right_track_2\.sky130_fd_sc_hd__mux2_1_2_X
*823 sb_0__1_\.mux_right_track_2\.sky130_fd_sc_hd__mux2_1_3_X
*824 sb_0__1_\.mux_right_track_2\.sky130_fd_sc_hd__mux2_1_4_X
*825 sb_0__1_\.mux_right_track_2\.sky130_fd_sc_hd__mux2_1_5_X
*826 sb_0__1_\.mux_right_track_20\.out
*827 sb_0__1_\.mux_right_track_20\.sky130_fd_sc_hd__mux2_1_0_X
*828 sb_0__1_\.mux_right_track_20\.sky130_fd_sc_hd__mux2_1_1_X
*829 sb_0__1_\.mux_right_track_20\.sky130_fd_sc_hd__mux2_1_2_X
*830 sb_0__1_\.mux_right_track_20\.sky130_fd_sc_hd__mux2_1_3_X
*831 sb_0__1_\.mux_right_track_22\.out
*832 sb_0__1_\.mux_right_track_22\.sky130_fd_sc_hd__mux2_1_0_X
*833 sb_0__1_\.mux_right_track_22\.sky130_fd_sc_hd__mux2_1_1_X
*834 sb_0__1_\.mux_right_track_22\.sky130_fd_sc_hd__mux2_1_2_X
*835 sb_0__1_\.mux_right_track_22\.sky130_fd_sc_hd__mux2_1_3_X
*836 sb_0__1_\.mux_right_track_24\.out
*837 sb_0__1_\.mux_right_track_24\.sky130_fd_sc_hd__mux2_1_0_X
*838 sb_0__1_\.mux_right_track_24\.sky130_fd_sc_hd__mux2_1_1_X
*839 sb_0__1_\.mux_right_track_24\.sky130_fd_sc_hd__mux2_1_2_X
*840 sb_0__1_\.mux_right_track_26\.out
*841 sb_0__1_\.mux_right_track_26\.sky130_fd_sc_hd__mux2_1_0_X
*842 sb_0__1_\.mux_right_track_26\.sky130_fd_sc_hd__mux2_1_1_X
*843 sb_0__1_\.mux_right_track_26\.sky130_fd_sc_hd__mux2_1_2_X
*844 sb_0__1_\.mux_right_track_28\.out
*845 sb_0__1_\.mux_right_track_28\.sky130_fd_sc_hd__mux2_1_0_X
*846 sb_0__1_\.mux_right_track_28\.sky130_fd_sc_hd__mux2_1_1_X
*847 sb_0__1_\.mux_right_track_28\.sky130_fd_sc_hd__mux2_1_2_X
*848 sb_0__1_\.mux_right_track_30\.out
*849 sb_0__1_\.mux_right_track_30\.sky130_fd_sc_hd__mux2_1_0_X
*850 sb_0__1_\.mux_right_track_30\.sky130_fd_sc_hd__mux2_1_1_X
*851 sb_0__1_\.mux_right_track_30\.sky130_fd_sc_hd__mux2_1_2_X