*SPEF "ieee 1481-1999"
*DESIGN "left_tile"
*DATE "11:11:11 Fri 11 11, 1111"
*VENDOR "OpenRCX"
*PROGRAM "Parallel Extraction"
*VERSION "1.0"
*DESIGN_FLOW "NAME_SCOPE LOCAL" "PIN_CAP NONE"
*DIVIDER /
*DELIMITER :
*BUS_DELIMITER []
*T_UNIT 1 NS
*C_UNIT 1 PF
*R_UNIT 1 OHM
*L_UNIT 1 HENRY

*NAME_MAP
*3 ccff_head
*4 ccff_head_0
*5 ccff_tail
*6 ccff_tail_0
*7 chanx_right_in[0]
*8 chanx_right_in[10]
*9 chanx_right_in[11]
*10 chanx_right_in[12]
*11 chanx_right_in[13]
*12 chanx_right_in[14]
*13 chanx_right_in[15]
*14 chanx_right_in[16]
*15 chanx_right_in[17]
*16 chanx_right_in[18]
*17 chanx_right_in[19]
*18 chanx_right_in[1]
*19 chanx_right_in[20]
*20 chanx_right_in[21]
*21 chanx_right_in[22]
*22 chanx_right_in[23]
*23 chanx_right_in[24]
*24 chanx_right_in[25]
*25 chanx_right_in[26]
*26 chanx_right_in[27]
*27 chanx_right_in[28]
*28 chanx_right_in[29]
*29 chanx_right_in[2]
*30 chanx_right_in[3]
*31 chanx_right_in[4]
*32 chanx_right_in[5]
*33 chanx_right_in[6]
*34 chanx_right_in[7]
*35 chanx_right_in[8]
*36 chanx_right_in[9]
*37 net216
*38 chanx_right_out[10]
*39 chanx_right_out[11]
*40 chanx_right_out[12]
*41 chanx_right_out[13]
*42 chanx_right_out[14]
*43 chanx_right_out[15]
*44 chanx_right_out[16]
*45 chanx_right_out[17]
*46 chanx_right_out[18]
*47 chanx_right_out[19]
*48 chanx_right_out[1]
*49 chanx_right_out[20]
*50 chanx_right_out[21]
*51 chanx_right_out[22]
*52 chanx_right_out[23]
*53 chanx_right_out[24]
*54 chanx_right_out[25]
*55 chanx_right_out[26]
*56 chanx_right_out[27]
*57 chanx_right_out[28]
*58 chanx_right_out[29]
*59 chanx_right_out[2]
*60 chanx_right_out[3]
*61 chanx_right_out[4]
*62 chanx_right_out[5]
*63 chanx_right_out[6]
*64 chanx_right_out[7]
*65 chanx_right_out[8]
*66 chanx_right_out[9]
*67 chany_bottom_in[0]
*68 chany_bottom_in[10]
*69 chany_bottom_in[11]
*70 chany_bottom_in[12]
*71 chany_bottom_in[13]
*72 chany_bottom_in[14]
*73 chany_bottom_in[15]
*74 chany_bottom_in[16]
*75 chany_bottom_in[17]
*76 chany_bottom_in[18]
*77 chany_bottom_in[19]
*78 chany_bottom_in[1]
*79 chany_bottom_in[20]
*80 chany_bottom_in[21]
*81 chany_bottom_in[22]
*82 chany_bottom_in[23]
*83 chany_bottom_in[24]
*84 chany_bottom_in[25]
*85 chany_bottom_in[26]
*86 chany_bottom_in[27]
*87 chany_bottom_in[28]
*88 chany_bottom_in[29]
*89 chany_bottom_in[2]
*90 chany_bottom_in[3]
*91 chany_bottom_in[4]
*92 chany_bottom_in[5]
*93 chany_bottom_in[6]
*94 chany_bottom_in[7]
*95 chany_bottom_in[8]
*96 chany_bottom_in[9]
*97 chany_bottom_out[0]
*98 chany_bottom_out[10]
*99 chany_bottom_out[11]
*100 chany_bottom_out[12]
*101 chany_bottom_out[13]
*102 chany_bottom_out[14]
*103 chany_bottom_out[15]
*104 chany_bottom_out[16]
*105 chany_bottom_out[17]
*106 chany_bottom_out[18]
*107 chany_bottom_out[19]
*108 chany_bottom_out[1]
*109 chany_bottom_out[20]
*110 chany_bottom_out[21]
*111 chany_bottom_out[22]
*112 chany_bottom_out[23]
*113 chany_bottom_out[24]
*114 chany_bottom_out[25]
*115 chany_bottom_out[26]
*116 chany_bottom_out[27]
*117 chany_bottom_out[28]
*118 chany_bottom_out[29]
*119 chany_bottom_out[2]
*120 chany_bottom_out[3]
*121 chany_bottom_out[4]
*122 chany_bottom_out[5]
*123 chany_bottom_out[6]
*124 chany_bottom_out[7]
*125 chany_bottom_out[8]
*126 chany_bottom_out[9]
*127 chany_top_in_0[0]
*128 chany_top_in_0[10]
*129 chany_top_in_0[11]
*130 chany_top_in_0[12]
*131 chany_top_in_0[13]
*132 chany_top_in_0[14]
*133 chany_top_in_0[15]
*134 chany_top_in_0[16]
*135 chany_top_in_0[17]
*136 chany_top_in_0[18]
*137 chany_top_in_0[19]
*138 chany_top_in_0[1]
*139 chany_top_in_0[20]
*140 chany_top_in_0[21]
*141 chany_top_in_0[22]
*142 chany_top_in_0[23]
*143 chany_top_in_0[24]
*144 chany_top_in_0[25]
*145 chany_top_in_0[26]
*146 chany_top_in_0[27]
*147 chany_top_in_0[28]
*148 chany_top_in_0[29]
*149 chany_top_in_0[2]
*150 chany_top_in_0[3]
*151 chany_top_in_0[4]
*152 chany_top_in_0[5]
*153 chany_top_in_0[6]
*154 chany_top_in_0[7]
*155 chany_top_in_0[8]
*156 chany_top_in_0[9]
*157 chany_top_out_0[0]
*158 chany_top_out_0[10]
*159 chany_top_out_0[11]
*160 chany_top_out_0[12]
*161 chany_top_out_0[13]
*162 chany_top_out_0[14]
*163 chany_top_out_0[15]
*164 chany_top_out_0[16]
*165 chany_top_out_0[17]
*166 chany_top_out_0[18]
*167 chany_top_out_0[19]
*168 chany_top_out_0[1]
*169 chany_top_out_0[20]
*170 chany_top_out_0[21]
*171 chany_top_out_0[22]
*172 chany_top_out_0[23]
*173 chany_top_out_0[24]
*174 chany_top_out_0[25]
*175 chany_top_out_0[26]
*176 chany_top_out_0[27]
*177 chany_top_out_0[28]
*178 chany_top_out_0[29]
*179 chany_top_out_0[2]
*180 chany_top_out_0[3]
*181 chany_top_out_0[4]
*182 chany_top_out_0[5]
*183 chany_top_out_0[6]
*184 chany_top_out_0[7]
*185 chany_top_out_0[8]
*186 chany_top_out_0[9]
*187 gfpga_pad_io_soc_dir[0]
*188 gfpga_pad_io_soc_dir[1]
*189 gfpga_pad_io_soc_dir[2]
*190 gfpga_pad_io_soc_dir[3]
*191 gfpga_pad_io_soc_in[0]
*192 gfpga_pad_io_soc_in[1]
*193 gfpga_pad_io_soc_in[2]
*194 gfpga_pad_io_soc_in[3]
*195 gfpga_pad_io_soc_out[0]
*196 gfpga_pad_io_soc_out[1]
*197 gfpga_pad_io_soc_out[2]
*198 gfpga_pad_io_soc_out[3]
*199 isol_n
*200 prog_clk
*201 prog_reset
*202 reset
*203 right_bottom_grid_top_width_0_height_0_subtile_0__pin_O_0_
*204 right_bottom_grid_top_width_0_height_0_subtile_0__pin_O_1_
*205 right_bottom_grid_top_width_0_height_0_subtile_0__pin_O_2_
*206 right_bottom_grid_top_width_0_height_0_subtile_0__pin_O_3_
*207 right_bottom_grid_top_width_0_height_0_subtile_0__pin_O_4_
*208 right_bottom_grid_top_width_0_height_0_subtile_0__pin_O_5_
*209 right_bottom_grid_top_width_0_height_0_subtile_0__pin_O_6_
*210 right_bottom_grid_top_width_0_height_0_subtile_0__pin_O_7_
*211 right_width_0_height_0_subtile_0__pin_inpad_0_
*212 right_width_0_height_0_subtile_1__pin_inpad_0_
*213 right_width_0_height_0_subtile_2__pin_inpad_0_
*214 right_width_0_height_0_subtile_3__pin_inpad_0_
*215 test_enable
*216 top_left_grid_right_width_0_height_0_subtile_0__pin_inpad_0_
*217 top_left_grid_right_width_0_height_0_subtile_1__pin_inpad_0_
*218 top_left_grid_right_width_0_height_0_subtile_2__pin_inpad_0_
*219 top_left_grid_right_width_0_height_0_subtile_3__pin_inpad_0_
*220 cby_0__1_\.cby_0__1_\.ccff_tail
*221 cby_0__1_\.cby_0__1_\.left_grid_right_width_0_height_0_subtile_0__pin_outpad_0_
*222 cby_0__1_\.cby_0__1_\.left_grid_right_width_0_height_0_subtile_1__pin_outpad_0_
*223 cby_0__1_\.cby_0__1_\.left_grid_right_width_0_height_0_subtile_2__pin_outpad_0_
*224 cby_0__1_\.cby_0__1_\.left_grid_right_width_0_height_0_subtile_3__pin_outpad_0_
*225 cby_0__1_\.cby_0__1_\.mem_right_ipin_0\.ccff_tail
*226 cby_0__1_\.cby_0__1_\.mem_right_ipin_0\.mem_out\[0\]
*227 cby_0__1_\.cby_0__1_\.mem_right_ipin_0\.mem_out\[1\]
*228 cby_0__1_\.cby_0__1_\.mem_right_ipin_0\.mem_out\[2\]
*229 cby_0__1_\.cby_0__1_\.mem_right_ipin_1\.ccff_tail
*230 cby_0__1_\.cby_0__1_\.mem_right_ipin_1\.mem_out\[0\]
*231 cby_0__1_\.cby_0__1_\.mem_right_ipin_1\.mem_out\[1\]
*232 cby_0__1_\.cby_0__1_\.mem_right_ipin_1\.mem_out\[2\]
*233 cby_0__1_\.cby_0__1_\.mem_right_ipin_2\.ccff_tail
*234 cby_0__1_\.cby_0__1_\.mem_right_ipin_2\.mem_out\[0\]
*235 cby_0__1_\.cby_0__1_\.mem_right_ipin_2\.mem_out\[1\]
*236 cby_0__1_\.cby_0__1_\.mem_right_ipin_2\.mem_out\[2\]
*237 cby_0__1_\.cby_0__1_\.mem_right_ipin_3\.mem_out\[0\]
*238 cby_0__1_\.cby_0__1_\.mem_right_ipin_3\.mem_out\[1\]
*239 cby_0__1_\.cby_0__1_\.mem_right_ipin_3\.mem_out\[2\]
*240 cby_0__1_\.cby_0__1_\.mux_right_ipin_0\.sky130_fd_sc_hd__mux2_1_0_X
*241 cby_0__1_\.cby_0__1_\.mux_right_ipin_0\.sky130_fd_sc_hd__mux2_1_10_X
*242 cby_0__1_\.cby_0__1_\.mux_right_ipin_0\.sky130_fd_sc_hd__mux2_1_11_X
*243 cby_0__1_\.cby_0__1_\.mux_right_ipin_0\.sky130_fd_sc_hd__mux2_1_1_X
*244 cby_0__1_\.cby_0__1_\.mux_right_ipin_0\.sky130_fd_sc_hd__mux2_1_2_X
*245 cby_0__1_\.cby_0__1_\.mux_right_ipin_0\.sky130_fd_sc_hd__mux2_1_3_X
*246 cby_0__1_\.cby_0__1_\.mux_right_ipin_0\.sky130_fd_sc_hd__mux2_1_4_X
*247 cby_0__1_\.cby_0__1_\.mux_right_ipin_0\.sky130_fd_sc_hd__mux2_1_5_X
*248 cby_0__1_\.cby_0__1_\.mux_right_ipin_0\.sky130_fd_sc_hd__mux2_1_6_X
*249 cby_0__1_\.cby_0__1_\.mux_right_ipin_0\.sky130_fd_sc_hd__mux2_1_7_X
*250 cby_0__1_\.cby_0__1_\.mux_right_ipin_0\.sky130_fd_sc_hd__mux2_1_8_X
*251 cby_0__1_\.cby_0__1_\.mux_right_ipin_0\.sky130_fd_sc_hd__mux2_1_9_X
*252 cby_0__1_\.cby_0__1_\.mux_right_ipin_1\.sky130_fd_sc_hd__mux2_1_0_X
*253 cby_0__1_\.cby_0__1_\.mux_right_ipin_1\.sky130_fd_sc_hd__mux2_1_10_X
*254 cby_0__1_\.cby_0__1_\.mux_right_ipin_1\.sky130_fd_sc_hd__mux2_1_11_X
*255 cby_0__1_\.cby_0__1_\.mux_right_ipin_1\.sky130_fd_sc_hd__mux2_1_1_X
*256 cby_0__1_\.cby_0__1_\.mux_right_ipin_1\.sky130_fd_sc_hd__mux2_1_2_X
*257 cby_0__1_\.cby_0__1_\.mux_right_ipin_1\.sky130_fd_sc_hd__mux2_1_3_X
*258 cby_0__1_\.cby_0__1_\.mux_right_ipin_1\.sky130_fd_sc_hd__mux2_1_4_X
*259 cby_0__1_\.cby_0__1_\.mux_right_ipin_1\.sky130_fd_sc_hd__mux2_1_5_X
*260 cby_0__1_\.cby_0__1_\.mux_right_ipin_1\.sky130_fd_sc_hd__mux2_1_6_X
*261 cby_0__1_\.cby_0__1_\.mux_right_ipin_1\.sky130_fd_sc_hd__mux2_1_7_X
*262 cby_0__1_\.cby_0__1_\.mux_right_ipin_1\.sky130_fd_sc_hd__mux2_1_8_X
*263 cby_0__1_\.cby_0__1_\.mux_right_ipin_1\.sky130_fd_sc_hd__mux2_1_9_X
*264 cby_0__1_\.cby_0__1_\.mux_right_ipin_2\.sky130_fd_sc_hd__mux2_1_0_X
*265 cby_0__1_\.cby_0__1_\.mux_right_ipin_2\.sky130_fd_sc_hd__mux2_1_10_X
*266 cby_0__1_\.cby_0__1_\.mux_right_ipin_2\.sky130_fd_sc_hd__mux2_1_11_X
*267 cby_0__1_\.cby_0__1_\.mux_right_ipin_2\.sky130_fd_sc_hd__mux2_1_1_X
*268 cby_0__1_\.cby_0__1_\.mux_right_ipin_2\.sky130_fd_sc_hd__mux2_1_2_X
*269 cby_0__1_\.cby_0__1_\.mux_right_ipin_2\.sky130_fd_sc_hd__mux2_1_3_X
*270 cby_0__1_\.cby_0__1_\.mux_right_ipin_2\.sky130_fd_sc_hd__mux2_1_4_X
*271 cby_0__1_\.cby_0__1_\.mux_right_ipin_2\.sky130_fd_sc_hd__mux2_1_5_X
*272 cby_0__1_\.cby_0__1_\.mux_right_ipin_2\.sky130_fd_sc_hd__mux2_1_6_X
*273 cby_0__1_\.cby_0__1_\.mux_right_ipin_2\.sky130_fd_sc_hd__mux2_1_7_X
*274 cby_0__1_\.cby_0__1_\.mux_right_ipin_2\.sky130_fd_sc_hd__mux2_1_8_X
*275 cby_0__1_\.cby_0__1_\.mux_right_ipin_2\.sky130_fd_sc_hd__mux2_1_9_X
*276 cby_0__1_\.cby_0__1_\.mux_right_ipin_3\.sky130_fd_sc_hd__mux2_1_0_X
*277 cby_0__1_\.cby_0__1_\.mux_right_ipin_3\.sky130_fd_sc_hd__mux2_1_10_X
*278 cby_0__1_\.cby_0__1_\.mux_right_ipin_3\.sky130_fd_sc_hd__mux2_1_11_X
*279 cby_0__1_\.cby_0__1_\.mux_right_ipin_3\.sky130_fd_sc_hd__mux2_1_1_X
*280 cby_0__1_\.cby_0__1_\.mux_right_ipin_3\.sky130_fd_sc_hd__mux2_1_2_X
*281 cby_0__1_\.cby_0__1_\.mux_right_ipin_3\.sky130_fd_sc_hd__mux2_1_3_X
*282 cby_0__1_\.cby_0__1_\.mux_right_ipin_3\.sky130_fd_sc_hd__mux2_1_4_X
*283 cby_0__1_\.cby_0__1_\.mux_right_ipin_3\.sky130_fd_sc_hd__mux2_1_5_X
*284 cby_0__1_\.cby_0__1_\.mux_right_ipin_3\.sky130_fd_sc_hd__mux2_1_6_X
*285 cby_0__1_\.cby_0__1_\.mux_right_ipin_3\.sky130_fd_sc_hd__mux2_1_7_X
*286 cby_0__1_\.cby_0__1_\.mux_right_ipin_3\.sky130_fd_sc_hd__mux2_1_8_X
*287 cby_0__1_\.cby_0__1_\.mux_right_ipin_3\.sky130_fd_sc_hd__mux2_1_9_X
*288 cby_0__1_\.grid_io_left_left_0__1_\.logical_tile_io_mode_io__0\.ccff_tail
*289 cby_0__1_\.grid_io_left_left_0__1_\.logical_tile_io_mode_io__0\.gfpga_pad_io_soc_dir
*290 cby_0__1_\.grid_io_left_left_0__1_\.logical_tile_io_mode_io__0\.logical_tile_io_mode_physical__iopad_0\.io_0_\.SOC_DIR_N
*291 cby_0__1_\.grid_io_left_left_0__1_\.logical_tile_io_mode_io__1\.ccff_tail
*292 cby_0__1_\.grid_io_left_left_0__1_\.logical_tile_io_mode_io__1\.gfpga_pad_io_soc_dir
*293 cby_0__1_\.grid_io_left_left_0__1_\.logical_tile_io_mode_io__1\.logical_tile_io_mode_physical__iopad_0\.io_0_\.SOC_DIR_N
*294 cby_0__1_\.grid_io_left_left_0__1_\.logical_tile_io_mode_io__2\.ccff_tail
*295 cby_0__1_\.grid_io_left_left_0__1_\.logical_tile_io_mode_io__2\.gfpga_pad_io_soc_dir
*296 cby_0__1_\.grid_io_left_left_0__1_\.logical_tile_io_mode_io__2\.logical_tile_io_mode_physical__iopad_0\.io_0_\.SOC_DIR_N
*297 cby_0__1_\.grid_io_left_left_0__1_\.logical_tile_io_mode_io__3\.gfpga_pad_io_soc_dir
*298 cby_0__1_\.grid_io_left_left_0__1_\.logical_tile_io_mode_io__3\.logical_tile_io_mode_physical__iopad_0\.io_0_\.SOC_DIR_N
*299 clknet_0_prog_clk
*300 clknet_4_0_0_prog_clk
*301 clknet_4_10_0_prog_clk
*302 clknet_4_11_0_prog_clk
*303 clknet_4_12_0_prog_clk
*304 clknet_4_13_0_prog_clk
*305 clknet_4_14_0_prog_clk
*306 clknet_4_15_0_prog_clk
*307 clknet_4_1_0_prog_clk
*308 clknet_4_2_0_prog_clk
*309 clknet_4_3_0_prog_clk
*310 clknet_4_4_0_prog_clk
*311 clknet_4_5_0_prog_clk
*312 clknet_4_6_0_prog_clk
*313 clknet_4_7_0_prog_clk
*314 clknet_4_8_0_prog_clk
*315 clknet_4_9_0_prog_clk
*316 net1
*317 net10
*318 net100
*319 net101
*320 net102
*321 net103
*322 net104
*323 net105
*324 net106
*325 net107
*326 net108
*327 net109
*328 net11
*329 net110
*330 net111
*331 net112
*332 net113
*333 net114
*334 net115
*335 net116
*336 net117
*337 net118
*338 net119
*339 net12
*340 net120
*341 net121
*342 net122
*343 net123
*344 net124
*345 net125
*346 net126
*347 net127
*348 net128
*349 net129
*350 net13
*351 net130
*352 net131
*353 net132
*354 net133
*355 net134
*356 net135
*357 net136
*358 net137
*359 net138
*360 net139
*361 net14
*362 net140
*363 net141
*364 net142
*365 net143
*366 net144
*367 net145
*368 net146
*369 net147
*370 net148
*371 net149
*372 net15
*373 net150
*374 net151
*375 net152
*376 net153
*377 net154
*378 net155
*379 net156
*380 net157
*381 net158
*382 net159
*383 net16
*384 net160
*385 net161
*386 net162
*387 net163
*388 net164
*389 net165
*390 net166
*391 net167
*392 net168
*393 net169
*394 net17
*395 net170
*396 net171
*397 net172
*398 net173
*399 net174
*400 net175
*401 net176
*402 net177
*403 net178
*404 net179
*405 net18
*406 net180
*407 net181
*408 net182
*409 net183
*410 net184
*411 net185
*412 net186
*413 net187
*414 net188
*415 net189
*416 net19
*417 net190
*418 net191
*419 net192
*420 net193
*421 net194
*422 net195
*423 net196
*424 net197
*425 net198
*426 net199
*427 net2
*428 net20
*429 net200
*430 net201
*431 net202
*432 net203
*433 net204
*434 net205
*435 net206
*436 net207
*437 net208
*438 net209
*439 net21
*440 net210
*441 net211
*442 net212
*443 net213
*444 net214
*445 net215
*446 net217
*447 net218
*448 net219
*449 net22
*450 net220
*451 net221
*452 net222
*453 net223
*454 net224
*455 net225
*456 net226
*457 net227
*458 net228
*459 net229
*460 net23
*461 net230
*462 net231
*463 net232
*464 net233
*465 net234
*466 net235
*467 net236
*468 net237
*469 net238
*470 net239
*471 net24
*472 net240
*473 net241
*474 net242
*475 net243
*476 net244
*477 net245
*478 net246
*479 net247
*480 net248
*481 net249
*482 net25
*483 net250
*484 net251
*485 net252
*486 net253
*487 net254
*488 net255
*489 net256
*490 net257
*491 net258
*492 net259
*493 net26
*494 net260
*495 net261
*496 net262
*497 net263
*498 net264
*499 net265
*500 net266
*501 net267
*502 net268
*503 net269
*504 net27
*505 net270
*506 net271
*507 net272
*508 net273
*509 net274
*510 net275
*511 net276
*512 net277
*513 net278
*514 net279
*515 net28
*516 net280
*517 net281
*518 net282
*519 net283
*520 net284
*521 net285
*522 net286
*523 net287
*524 net288
*525 net289
*526 net29
*527 net290
*528 net291
*529 net292
*530 net293
*531 net294
*532 net295
*533 net296
*534 net297
*535 net298
*536 net299
*537 net3
*538 net30
*539 net300
*540 net301
*541 net302
*542 net303
*543 net304
*544 net305
*545 net306
*546 net307
*547 net308
*548 net309
*549 net31
*550 net310
*551 net311
*552 net312
*553 net313
*554 net314
*555 net315
*556 net316
*557 net317
*558 net318
*559 net319
*560 net32
*561 net320
*562 net321
*563 net322
*564 net323
*565 net324
*566 net325
*567 net326
*568 net327
*569 net328
*570 net329
*571 net33
*572 net330
*573 net331
*574 net332
*575 net333
*576 net334
*577 net335
*578 net336
*579 net337
*580 net338
*581 net339
*582 net34
*583 net340
*584 net341
*585 net342
*586 net343
*587 net344
*588 net345
*589 net346
*590 net347
*591 net348
*592 net349
*593 net35
*594 net350
*595 net351
*596 net352
*597 net353
*598 net354
*599 net355
*600 net356
*601 net357
*602 net358
*603 net359
*604 net36
*605 net360
*606 net361
*607 net362
*608 net363
*609 net364
*610 net365
*611 net366
*612 net367
*613 net368
*614 net369
*615 net37
*616 net370
*617 net371
*618 net372
*619 net373
*620 net374
*621 net375
*622 net376
*623 net377
*624 net378
*625 net379
*626 net38
*627 net380
*628 net381
*629 net382
*630 net383
*631 net384
*632 net385
*633 net386
*634 net387
*635 net388
*636 net389
*637 net39
*638 net390
*639 net391
*640 net392
*641 net393
*642 net394
*643 net395
*644 net396
*645 net397
*646 net398
*647 net399
*648 net4
*649 net40
*650 net400
*651 net401
*652 net41
*653 net42
*654 net43
*655 net44
*656 net45
*657 net46
*658 net47
*659 net48
*660 net49
*661 net5
*662 net50
*663 net51
*664 net52
*665 net53
*666 net54
*667 net55
*668 net56
*669 net57
*670 net58
*671 net59
*672 net6
*673 net60
*674 net61
*675 net62
*676 net63
*677 net64
*678 net65
*679 net66
*680 net67
*681 net68
*682 net69
*683 net7
*684 net70
*685 net71
*686 net72
*687 net73
*688 net74
*689 net75
*690 net76
*691 net77
*692 net78
*693 net79
*694 net8
*695 net80
*696 net81
*697 net82
*698 net83
*699 net84
*700 net85
*701 net86
*702 net87
*703 net88
*704 net89
*705 net9
*706 net90
*707 net91
*708 net92
*709 net93
*710 net94
*711 net95
*712 net96
*713 net97
*714 net98
*715 net99
*716 sb_0__1_\.mem_bottom_track_1\.ccff_head
*717 sb_0__1_\.mem_bottom_track_1\.ccff_tail
*718 sb_0__1_\.mem_bottom_track_1\.mem_out\[0\]
*719 sb_0__1_\.mem_bottom_track_1\.mem_out\[1\]
*720 sb_0__1_\.mem_bottom_track_11\.ccff_head
*721 sb_0__1_\.mem_bottom_track_11\.ccff_tail
*722 sb_0__1_\.mem_bottom_track_11\.mem_out\[0\]
*723 sb_0__1_\.mem_bottom_track_11\.mem_out\[1\]
*724 sb_0__1_\.mem_bottom_track_13\.ccff_tail
*725 sb_0__1_\.mem_bottom_track_13\.mem_out\[0\]
*726 sb_0__1_\.mem_bottom_track_13\.mem_out\[1\]
*727 sb_0__1_\.mem_bottom_track_21\.ccff_tail
*728 sb_0__1_\.mem_bottom_track_21\.mem_out\[0\]
*729 sb_0__1_\.mem_bottom_track_21\.mem_out\[1\]
*730 sb_0__1_\.mem_bottom_track_29\.ccff_tail
*731 sb_0__1_\.mem_bottom_track_29\.mem_out\[0\]
*732 sb_0__1_\.mem_bottom_track_29\.mem_out\[1\]
*733 sb_0__1_\.mem_bottom_track_3\.ccff_tail
*734 sb_0__1_\.mem_bottom_track_3\.mem_out\[0\]
*735 sb_0__1_\.mem_bottom_track_3\.mem_out\[1\]
*736 sb_0__1_\.mem_bottom_track_37\.ccff_tail
*737 sb_0__1_\.mem_bottom_track_37\.mem_out\[0\]
*738 sb_0__1_\.mem_bottom_track_37\.mem_out\[1\]
*739 sb_0__1_\.mem_bottom_track_45\.ccff_tail
*740 sb_0__1_\.mem_bottom_track_45\.mem_out\[0\]
*741 sb_0__1_\.mem_bottom_track_45\.mem_out\[1\]
*742 sb_0__1_\.mem_bottom_track_5\.ccff_tail
*743 sb_0__1_\.mem_bottom_track_5\.mem_out\[0\]
*744 sb_0__1_\.mem_bottom_track_5\.mem_out\[1\]
*745 sb_0__1_\.mem_bottom_track_53\.mem_out\[0\]
*746 sb_0__1_\.mem_bottom_track_7\.mem_out\[0\]
*747 sb_0__1_\.mem_bottom_track_7\.mem_out\[1\]
*748 sb_0__1_\.mem_right_track_0\.ccff_head
*749 sb_0__1_\.mem_right_track_0\.ccff_tail
*750 sb_0__1_\.mem_right_track_0\.mem_out\[0\]
*751 sb_0__1_\.mem_right_track_0\.mem_out\[1\]
*752 sb_0__1_\.mem_right_track_10\.ccff_head
*753 sb_0__1_\.mem_right_track_10\.ccff_tail
*754 sb_0__1_\.mem_right_track_10\.mem_out\[0\]
*755 sb_0__1_\.mem_right_track_10\.mem_out\[1\]
*756 sb_0__1_\.mem_right_track_12\.ccff_tail
*757 sb_0__1_\.mem_right_track_12\.mem_out\[0\]
*758 sb_0__1_\.mem_right_track_12\.mem_out\[1\]
*759 sb_0__1_\.mem_right_track_14\.ccff_tail
*760 sb_0__1_\.mem_right_track_14\.mem_out\[0\]
*761 sb_0__1_\.mem_right_track_14\.mem_out\[1\]
*762 sb_0__1_\.mem_right_track_16\.ccff_tail
*763 sb_0__1_\.mem_right_track_16\.mem_out\[0\]
*764 sb_0__1_\.mem_right_track_16\.mem_out\[1\]
*765 sb_0__1_\.mem_right_track_18\.ccff_tail
*766 sb_0__1_\.mem_right_track_18\.mem_out\[0\]
*767 sb_0__1_\.mem_right_track_18\.mem_out\[1\]
*768 sb_0__1_\.mem_right_track_2\.ccff_tail
*769 sb_0__1_\.mem_right_track_2\.mem_out\[0\]
*770 sb_0__1_\.mem_right_track_2\.mem_out\[1\]
*771 sb_0__1_\.mem_right_track_20\.ccff_tail
*772 sb_0__1_\.mem_right_track_20\.mem_out\[0\]
*773 sb_0__1_\.mem_right_track_20\.mem_out\[1\]
*774 sb_0__1_\.mem_right_track_22\.ccff_tail
*775 sb_0__1_\.mem_right_track_22\.mem_out\[0\]
*776 sb_0__1_\.mem_right_track_22\.mem_out\[1\]
*777 sb_0__1_\.mem_right_track_24\.ccff_tail
*778 sb_0__1_\.mem_right_track_24\.mem_out\[0\]
*779 sb_0__1_\.mem_right_track_26\.ccff_tail
*780 sb_0__1_\.mem_right_track_26\.mem_out\[0\]
*781 sb_0__1_\.mem_right_track_28\.ccff_tail
*782 sb_0__1_\.mem_right_track_28\.mem_out\[0\]
*783 sb_0__1_\.mem_right_track_30\.ccff_tail
*784 sb_0__1_\.mem_right_track_30\.mem_out\[0\]
*785 sb_0__1_\.mem_right_track_32\.ccff_tail
*786 sb_0__1_\.mem_right_track_32\.mem_out\[0\]
*787 sb_0__1_\.mem_right_track_34\.ccff_tail
*788 sb_0__1_\.mem_right_track_34\.mem_out\[0\]
*789 sb_0__1_\.mem_right_track_36\.ccff_tail
*790 sb_0__1_\.mem_right_track_36\.mem_out\[0\]
*791 sb_0__1_\.mem_right_track_36\.mem_out\[1\]
*792 sb_0__1_\.mem_right_track_38\.ccff_tail
*793 sb_0__1_\.mem_right_track_38\.mem_out\[0\]
*794 sb_0__1_\.mem_right_track_4\.ccff_tail
*795 sb_0__1_\.mem_right_track_4\.mem_out\[0\]
*796 sb_0__1_\.mem_right_track_4\.mem_out\[1\]
*797 sb_0__1_\.mem_right_track_40\.ccff_tail
*798 sb_0__1_\.mem_right_track_40\.mem_out\[0\]
*799 sb_0__1_\.mem_right_track_44\.ccff_tail
*800 sb_0__1_\.mem_right_track_44\.mem_out\[0\]
*801 sb_0__1_\.mem_right_track_46\.ccff_tail
*802 sb_0__1_\.mem_right_track_46\.mem_out\[0\]
*803 sb_0__1_\.mem_right_track_48\.ccff_tail
*804 sb_0__1_\.mem_right_track_48\.mem_out\[0\]
*805 sb_0__1_\.mem_right_track_50\.ccff_tail
*806 sb_0__1_\.mem_right_track_50\.mem_out\[0\]
*807 sb_0__1_\.mem_right_track_52\.ccff_tail
*808 sb_0__1_\.mem_right_track_52\.mem_out\[0\]
*809 sb_0__1_\.mem_right_track_54\.ccff_tail
*810 sb_0__1_\.mem_right_track_54\.mem_out\[0\]
*811 sb_0__1_\.mem_right_track_56\.mem_out\[0\]
*812 sb_0__1_\.mem_right_track_6\.ccff_tail
*813 sb_0__1_\.mem_right_track_6\.mem_out\[0\]
*814 sb_0__1_\.mem_right_track_6\.mem_out\[1\]
*815 sb_0__1_\.mem_right_track_8\.mem_out\[0\]
*816 sb_0__1_\.mem_right_track_8\.mem_out\[1\]
*817 sb_0__1_\.mem_top_track_0\.ccff_tail
*818 sb_0__1_\.mem_top_track_0\.mem_out\[0\]
*819 sb_0__1_\.mem_top_track_0\.mem_out\[1\]
*820 sb_0__1_\.mem_top_track_10\.ccff_head
*821 sb_0__1_\.mem_top_track_10\.ccff_tail
*822 sb_0__1_\.mem_top_track_10\.mem_out\[0\]
*823 sb_0__1_\.mem_top_track_10\.mem_out\[1\]
*824 sb_0__1_\.mem_top_track_12\.ccff_tail
*825 sb_0__1_\.mem_top_track_12\.mem_out\[0\]
*826 sb_0__1_\.mem_top_track_12\.mem_out\[1\]
*827 sb_0__1_\.mem_top_track_2\.ccff_tail
*828 sb_0__1_\.mem_top_track_2\.mem_out\[0\]
*829 sb_0__1_\.mem_top_track_2\.mem_out\[1\]
*830 sb_0__1_\.mem_top_track_20\.ccff_tail
*831 sb_0__1_\.mem_top_track_20\.mem_out\[0\]
*832 sb_0__1_\.mem_top_track_20\.mem_out\[1\]
*833 sb_0__1_\.mem_top_track_28\.ccff_tail
*834 sb_0__1_\.mem_top_track_28\.mem_out\[0\]
*835 sb_0__1_\.mem_top_track_28\.mem_out\[1\]
*836 sb_0__1_\.mem_top_track_36\.ccff_tail
*837 sb_0__1_\.mem_top_track_36\.mem_out\[0\]
*838 sb_0__1_\.mem_top_track_36\.mem_out\[1\]
*839 sb_0__1_\.mem_top_track_4\.ccff_tail
*840 sb_0__1_\.mem_top_track_4\.mem_out\[0\]
*841 sb_0__1_\.mem_top_track_4\.mem_out\[1\]
*842 sb_0__1_\.mem_top_track_44\.ccff_tail
*843 sb_0__1_\.mem_top_track_44\.mem_out\[0\]
*844 sb_0__1_\.mem_top_track_52\.mem_out\[0\]
*845 sb_0__1_\.mem_top_track_52\.mem_out\[1\]
*846 sb_0__1_\.mem_top_track_6\.mem_out\[0\]
*847 sb_0__1_\.mem_top_track_6\.mem_out\[1\]
*848 sb_0__1_\.mux_bottom_track_1\.out
*849 sb_0__1_\.mux_bottom_track_1\.sky130_fd_sc_hd__mux2_1_0_X
*850 sb_0__1_\.mux_bottom_track_1\.sky130_fd_sc_hd__mux2_1_1_X
*851 sb_0__1_\.mux_bottom_track_1\.sky130_fd_sc_hd__mux2_1_2_X
*852 sb_0__1_\.mux_bottom_track_1\.sky130_fd_sc_hd__mux2_1_3_X
*853 sb_0__1_\.mux_bottom_track_1\.sky130_fd_sc_hd__mux2_1_4_X
*854 sb_0__1_\.mux_bottom_track_1\.sky130_fd_sc_hd__mux2_1_5_X
*855 sb_0__1_\.mux_bottom_track_11\.out
*856 sb_0__1_\.mux_bottom_track_11\.sky130_fd_sc_hd__mux2_1_0_X
*857 sb_0__1_\.mux_bottom_track_11\.sky130_fd_sc_hd__mux2_1_1_X
*858 sb_0__1_\.mux_bottom_track_11\.sky130_fd_sc_hd__mux2_1_2_X
*859 sb_0__1_\.mux_bottom_track_11\.sky130_fd_sc_hd__mux2_1_3_X
*860 sb_0__1_\.mux_bottom_track_11\.sky130_fd_sc_hd__mux2_1_4_X
*861 sb_0__1_\.mux_bottom_track_11\.sky130_fd_sc_hd__mux2_1_5_X
*862 sb_0__1_\.mux_bottom_track_11\.sky130_fd_sc_hd__mux2_1_6_X
*863 sb_0__1_\.mux_bottom_track_13\.out
*864 sb_0__1_\.mux_bottom_track_13\.sky130_fd_sc_hd__mux2_1_0_X
*865 sb_0__1_\.mux_bottom_track_13\.sky130_fd_sc_hd__mux2_1_1_X
*866 sb_0__1_\.mux_bottom_track_13\.sky130_fd_sc_hd__mux2_1_2_X
*867 sb_0__1_\.mux_bottom_track_13\.sky130_fd_sc_hd__mux2_1_3_X
*868 sb_0__1_\.mux_bottom_track_13\.sky130_fd_sc_hd__mux2_1_4_X
*869 sb_0__1_\.mux_bottom_track_13\.sky130_fd_sc_hd__mux2_1_5_X
*870 sb_0__1_\.mux_bottom_track_21\.out
*871 sb_0__1_\.mux_bottom_track_21\.sky130_fd_sc_hd__mux2_1_0_X
*872 sb_0__1_\.mux_bottom_track_21\.sky130_fd_sc_hd__mux2_1_1_X
*873 sb_0__1_\.mux_bottom_track_21\.sky130_fd_sc_hd__mux2_1_2_X
*874 sb_0__1_\.mux_bottom_track_21\.sky130_fd_sc_hd__mux2_1_3_X
*875 sb_0__1_\.mux_bottom_track_21\.sky130_fd_sc_hd__mux2_1_4_X
*876 sb_0__1_\.mux_bottom_track_21\.sky130_fd_sc_hd__mux2_1_5_X
*877 sb_0__1_\.mux_bottom_track_29\.out
*878 sb_0__1_\.mux_bottom_track_29\.sky130_fd_sc_hd__mux2_1_0_X
*879 sb_0__1_\.mux_bottom_track_29\.sky130_fd_sc_hd__mux2_1_1_X
*880 sb_0__1_\.mux_bottom_track_29\.sky130_fd_sc_hd__mux2_1_2_X
*881 sb_0__1_\.mux_bottom_track_29\.sky130_fd_sc_hd__mux2_1_3_X
*882 sb_0__1_\.mux_bottom_track_29\.sky130_fd_sc_hd__mux2_1_4_X
*883 sb_0__1_\.mux_bottom_track_29\.sky130_fd_sc_hd__mux2_1_5_X
*884 sb_0__1_\.mux_bottom_track_3\.out
*885 sb_0__1_\.mux_bottom_track_3\.sky130_fd_sc_hd__mux2_1_0_X
*886 sb_0__1_\.mux_bottom_track_3\.sky130_fd_sc_hd__mux2_1_1_X
*887 sb_0__1_\.mux_bottom_track_3\.sky130_fd_sc_hd__mux2_1_2_X
*888 sb_0__1_\.mux_bottom_track_3\.sky130_fd_sc_hd__mux2_1_3_X
*889 sb_0__1_\.mux_bottom_track_3\.sky130_fd_sc_hd__mux2_1_4_X
*890 sb_0__1_\.mux_bottom_track_37\.out
*891 sb_0__1_\.mux_bottom_track_37\.sky130_fd_sc_hd__mux2_1_0_X
*892 sb_0__1_\.mux_bottom_track_37\.sky130_fd_sc_hd__mux2_1_1_X
*893 sb_0__1_\.mux_bottom_track_37\.sky130_fd_sc_hd__mux2_1_2_X
*894 sb_0__1_\.mux_bottom_track_37\.sky130_fd_sc_hd__mux2_1_3_X
*895 sb_0__1_\.mux_bottom_track_37\.sky130_fd_sc_hd__mux2_1_4_X
*896 sb_0__1_\.mux_bottom_track_45\.out
*897 sb_0__1_\.mux_bottom_track_45\.sky130_fd_sc_hd__mux2_1_0_X
*898 sb_0__1_\.mux_bottom_track_45\.sky130_fd_sc_hd__mux2_1_1_X
*899 sb_0__1_\.mux_bottom_track_45\.sky130_fd_sc_hd__mux2_1_2_X
*900 sb_0__1_\.mux_bottom_track_45\.sky130_fd_sc_hd__mux2_1_3_X
*901 sb_0__1_\.mux_bottom_track_5\.out
*902 sb_0__1_\.mux_bottom_track_5\.sky130_fd_sc_hd__mux2_1_0_X
*903 sb_0__1_\.mux_bottom_track_5\.sky130_fd_sc_hd__mux2_1_1_X
*904 sb_0__1_\.mux_bottom_track_5\.sky130_fd_sc_hd__mux2_1_2_X
*905 sb_0__1_\.mux_bottom_track_5\.sky130_fd_sc_hd__mux2_1_3_X
*906 sb_0__1_\.mux_bottom_track_5\.sky130_fd_sc_hd__mux2_1_4_X
*907 sb_0__1_\.mux_bottom_track_5\.sky130_fd_sc_hd__mux2_1_5_X
*908 sb_0__1_\.mux_bottom_track_53\.out
*909 sb_0__1_\.mux_bottom_track_53\.sky130_fd_sc_hd__mux2_1_0_X
*910 sb_0__1_\.mux_bottom_track_53\.sky130_fd_sc_hd__mux2_1_1_X
*911 sb_0__1_\.mux_bottom_track_53\.sky130_fd_sc_hd__mux2_1_2_X
*912 sb_0__1_\.mux_bottom_track_7\.out
*913 sb_0__1_\.mux_bottom_track_7\.sky130_fd_sc_hd__mux2_1_0_X
*914 sb_0__1_\.mux_bottom_track_7\.sky130_fd_sc_hd__mux2_1_1_X
*915 sb_0__1_\.mux_bottom_track_7\.sky130_fd_sc_hd__mux2_1_2_X
*916 sb_0__1_\.mux_bottom_track_7\.sky130_fd_sc_hd__mux2_1_3_X
*917 sb_0__1_\.mux_bottom_track_7\.sky130_fd_sc_hd__mux2_1_4_X
*918 sb_0__1_\.mux_bottom_track_7\.sky130_fd_sc_hd__mux2_1_5_X
*919 sb_0__1_\.mux_bottom_track_7\.sky130_fd_sc_hd__mux2_1_6_X
*920 sb_0__1_\.mux_right_track_0\.out
*921 sb_0__1_\.mux_right_track_0\.sky130_fd_sc_hd__mux2_1_0_X
*922 sb_0__1_\.mux_right_track_0\.sky130_fd_sc_hd__mux2_1_1_X
*923 sb_0__1_\.mux_right_track_0\.sky130_fd_sc_hd__mux2_1_2_X
*924 sb_0__1_\.mux_right_track_0\.sky130_fd_sc_hd__mux2_1_3_X
*925 sb_0__1_\.mux_right_track_0\.sky130_fd_sc_hd__mux2_1_4_X
*926 sb_0__1_\.mux_right_track_10\.out
*927 sb_0__1_\.mux_right_track_10\.sky130_fd_sc_hd__mux2_1_0_X
*928 sb_0__1_\.mux_right_track_10\.sky130_fd_sc_hd__mux2_1_1_X
*929 sb_0__1_\.mux_right_track_10\.sky130_fd_sc_hd__mux2_1_2_X
*930 sb_0__1_\.mux_right_track_10\.sky130_fd_sc_hd__mux2_1_3_X
*931 sb_0__1_\.mux_right_track_10\.sky130_fd_sc_hd__mux2_1_4_X
*932 sb_0__1_\.mux_right_track_12\.out
*933 sb_0__1_\.mux_right_track_12\.sky130_fd_sc_hd__mux2_1_0_X
*934 sb_0__1_\.mux_right_track_12\.sky130_fd_sc_hd__mux2_1_1_X
*935 sb_0__1_\.mux_right_track_12\.sky130_fd_sc_hd__mux2_1_2_X
*936 sb_0__1_\.mux_right_track_12\.sky130_fd_sc_hd__mux2_1_3_X
*937 sb_0__1_\.mux_right_track_14\.out
*938 sb_0__1_\.mux_right_track_14\.sky130_fd_sc_hd__mux2_1_0_X
*939 sb_0__1_\.mux_right_track_14\.sky130_fd_sc_hd__mux2_1_1_X
*940 sb_0__1_\.mux_right_track_14\.sky130_fd_sc_hd__mux2_1_2_X
*941 sb_0__1_\.mux_right_track_14\.sky130_fd_sc_hd__mux2_1_3_X
*942 sb_0__1_\.mux_right_track_16\.out
*943 sb_0__1_\.mux_right_track_16\.sky130_fd_sc_hd__mux2_1_0_X
*944 sb_0__1_\.mux_right_track_16\.sky130_fd_sc_hd__mux2_1_1_X
*945 sb_0__1_\.mux_right_track_16\.sky130_fd_sc_hd__mux2_1_2_X
*946 sb_0__1_\.mux_right_track_16\.sky130_fd_sc_hd__mux2_1_3_X
*947 sb_0__1_\.mux_right_track_18\.out
*948 sb_0__1_\.mux_right_track_18\.sky130_fd_sc_hd__mux2_1_0_X
*949 sb_0__1_\.mux_right_track_18\.sky130_fd_sc_hd__mux2_1_1_X
*950 sb_0__1_\.mux_right_track_18\.sky130_fd_sc_hd__mux2_1_2_X
*951 sb_0__1_\.mux_right_track_18\.sky130_fd_sc_hd__mux2_1_3_X
*952 sb_0__1_\.mux_right_track_2\.out
*953 sb_0__1_\.mux_right_track_2\.sky130_fd_sc_hd__mux2_1_0_X
*954 sb_0__1_\.mux_right_track_2\.sky130_fd_sc_hd__mux2_1_1_X
*955 sb_0__1_\.mux_right_track_2\.sky130_fd_sc_hd__mux2_1_2_X
*956 sb_0__1_\.mux_right_track_2\.sky130_fd_sc_hd__mux2_1_3_X
*957 sb_0__1_\.mux_right_track_2\.sky130_fd_sc_hd__mux2_1_4_X
*958 sb_0__1_\.mux_right_track_2\.sky130_fd_sc_hd__mux2_1_5_X
*959 sb_0__1_\.mux_right_track_20\.out
*960 sb_0__1_\.mux_right_track_20\.sky130_fd_sc_hd__mux2_1_0_X
*961 sb_0__1_\.mux_right_track_20\.sky130_fd_sc_hd__mux2_1_1_X
*962 sb_0__1_\.mux_right_track_20\.sky130_fd_sc_hd__mux2_1_2_X