* NGSPICE file created from bottom_tile.ext - technology: sky130A

* Black-box entry subcircuit for sky130_fd_sc_hd__tapvpwrvgnd_1 abstract view
.subckt sky130_fd_sc_hd__tapvpwrvgnd_1 VGND VPWR
.ends

* Black-box entry subcircuit for sky130_ef_sc_hd__decap_12 abstract view
.subckt sky130_ef_sc_hd__decap_12 VGND VNB VPB VPWR
.ends

* Black-box entry subcircuit for sky130_fd_sc_hd__fill_1 abstract view
.subckt sky130_fd_sc_hd__fill_1 VGND VNB VPB VPWR
.ends

* Black-box entry subcircuit for sky130_fd_sc_hd__decap_6 abstract view
.subckt sky130_fd_sc_hd__decap_6 VGND VNB VPB VPWR
.ends

* Black-box entry subcircuit for sky130_fd_sc_hd__dfrtp_1 abstract view
.subckt sky130_fd_sc_hd__dfrtp_1 CLK D RESET_B VGND VNB VPB VPWR Q
.ends

* Black-box entry subcircuit for sky130_fd_sc_hd__ebufn_8 abstract view
.subckt sky130_fd_sc_hd__ebufn_8 A TE_B VGND VNB VPB VPWR Z
.ends

* Black-box entry subcircuit for sky130_fd_sc_hd__decap_8 abstract view
.subckt sky130_fd_sc_hd__decap_8 VGND VNB VPB VPWR
.ends

* Black-box entry subcircuit for sky130_fd_sc_hd__conb_1 abstract view
.subckt sky130_fd_sc_hd__conb_1 VGND VNB VPB VPWR HI LO
.ends

* Black-box entry subcircuit for sky130_fd_sc_hd__decap_4 abstract view
.subckt sky130_fd_sc_hd__decap_4 VGND VNB VPB VPWR
.ends

* Black-box entry subcircuit for sky130_fd_sc_hd__mux2_1 abstract view
.subckt sky130_fd_sc_hd__mux2_1 A0 A1 S VGND VNB VPB VPWR X
.ends

* Black-box entry subcircuit for sky130_fd_sc_hd__fill_2 abstract view
.subckt sky130_fd_sc_hd__fill_2 VGND VNB VPB VPWR
.ends

* Black-box entry subcircuit for sky130_fd_sc_hd__dfrtp_2 abstract view
.subckt sky130_fd_sc_hd__dfrtp_2 CLK D RESET_B VGND VNB VPB VPWR Q
.ends

* Black-box entry subcircuit for sky130_fd_sc_hd__clkbuf_2 abstract view
.subckt sky130_fd_sc_hd__clkbuf_2 A VGND VNB VPB VPWR X
.ends

* Black-box entry subcircuit for sky130_fd_sc_hd__dfrtp_4 abstract view
.subckt sky130_fd_sc_hd__dfrtp_4 CLK D RESET_B VGND VNB VPB VPWR Q
.ends

* Black-box entry subcircuit for sky130_fd_sc_hd__decap_3 abstract view
.subckt sky130_fd_sc_hd__decap_3 VGND VNB VPB VPWR
.ends

* Black-box entry subcircuit for sky130_fd_sc_hd__diode_2 abstract view
.subckt sky130_fd_sc_hd__diode_2 DIODE VGND VNB VPB VPWR
.ends

* Black-box entry subcircuit for sky130_fd_sc_hd__clkbuf_8 abstract view
.subckt sky130_fd_sc_hd__clkbuf_8 A VGND VNB VPB VPWR X
.ends

* Black-box entry subcircuit for sky130_fd_sc_hd__clkbuf_1 abstract view
.subckt sky130_fd_sc_hd__clkbuf_1 A VGND VNB VPB VPWR X
.ends

* Black-box entry subcircuit for sky130_fd_sc_hd__buf_12 abstract view
.subckt sky130_fd_sc_hd__buf_12 A VGND VNB VPB VPWR X
.ends

* Black-box entry subcircuit for sky130_fd_sc_hd__buf_2 abstract view
.subckt sky130_fd_sc_hd__buf_2 A VGND VNB VPB VPWR X
.ends

* Black-box entry subcircuit for sky130_fd_sc_hd__inv_1 abstract view
.subckt sky130_fd_sc_hd__inv_1 A VGND VNB VPB VPWR Y
.ends

* Black-box entry subcircuit for sky130_fd_sc_hd__dlymetal6s2s_1 abstract view
.subckt sky130_fd_sc_hd__dlymetal6s2s_1 A VGND VNB VPB VPWR X
.ends

* Black-box entry subcircuit for sky130_fd_sc_hd__clkbuf_4 abstract view
.subckt sky130_fd_sc_hd__clkbuf_4 A VGND VNB VPB VPWR X
.ends

* Black-box entry subcircuit for sky130_fd_sc_hd__ebufn_1 abstract view
.subckt sky130_fd_sc_hd__ebufn_1 A TE_B VGND VNB VPB VPWR Z
.ends

* Black-box entry subcircuit for sky130_fd_sc_hd__or2b_2 abstract view
.subckt sky130_fd_sc_hd__or2b_2 A B_N VGND VNB VPB VPWR X
.ends

* Black-box entry subcircuit for sky130_fd_sc_hd__or2b_1 abstract view
.subckt sky130_fd_sc_hd__or2b_1 A B_N VGND VNB VPB VPWR X
.ends

* Black-box entry subcircuit for sky130_fd_sc_hd__clkbuf_16 abstract view
.subckt sky130_fd_sc_hd__clkbuf_16 A VGND VNB VPB VPWR X
.ends

.subckt bottom_tile VGND VPWR ccff_head ccff_head_1 ccff_tail ccff_tail_0 chanx_left_in[0]
+ chanx_left_in[10] chanx_left_in[11] chanx_left_in[12] chanx_left_in[13] chanx_left_in[14]
+ chanx_left_in[15] chanx_left_in[16] chanx_left_in[17] chanx_left_in[18] chanx_left_in[19]
+ chanx_left_in[1] chanx_left_in[20] chanx_left_in[21] chanx_left_in[22] chanx_left_in[23]
+ chanx_left_in[24] chanx_left_in[25] chanx_left_in[26] chanx_left_in[27] chanx_left_in[28]
+ chanx_left_in[29] chanx_left_in[2] chanx_left_in[3] chanx_left_in[4] chanx_left_in[5]
+ chanx_left_in[6] chanx_left_in[7] chanx_left_in[8] chanx_left_in[9] chanx_left_out[0]
+ chanx_left_out[10] chanx_left_out[11] chanx_left_out[12] chanx_left_out[13] chanx_left_out[14]
+ chanx_left_out[15] chanx_left_out[16] chanx_left_out[17] chanx_left_out[18] chanx_left_out[19]
+ chanx_left_out[1] chanx_left_out[20] chanx_left_out[21] chanx_left_out[22] chanx_left_out[23]
+ chanx_left_out[24] chanx_left_out[25] chanx_left_out[26] chanx_left_out[27] chanx_left_out[28]
+ chanx_left_out[29] chanx_left_out[2] chanx_left_out[3] chanx_left_out[4] chanx_left_out[5]
+ chanx_left_out[6] chanx_left_out[7] chanx_left_out[8] chanx_left_out[9] chanx_right_in_0[0]
+ chanx_right_in_0[10] chanx_right_in_0[11] chanx_right_in_0[12] chanx_right_in_0[13]
+ chanx_right_in_0[14] chanx_right_in_0[15] chanx_right_in_0[16] chanx_right_in_0[17]
+ chanx_right_in_0[18] chanx_right_in_0[19] chanx_right_in_0[1] chanx_right_in_0[20]
+ chanx_right_in_0[21] chanx_right_in_0[22] chanx_right_in_0[23] chanx_right_in_0[24]
+ chanx_right_in_0[25] chanx_right_in_0[26] chanx_right_in_0[27] chanx_right_in_0[28]
+ chanx_right_in_0[29] chanx_right_in_0[2] chanx_right_in_0[3] chanx_right_in_0[4]
+ chanx_right_in_0[5] chanx_right_in_0[6] chanx_right_in_0[7] chanx_right_in_0[8]
+ chanx_right_in_0[9] chanx_right_out_0[0] chanx_right_out_0[10] chanx_right_out_0[11]
+ chanx_right_out_0[12] chanx_right_out_0[13] chanx_right_out_0[14] chanx_right_out_0[15]
+ chanx_right_out_0[16] chanx_right_out_0[17] chanx_right_out_0[18] chanx_right_out_0[19]
+ chanx_right_out_0[1] chanx_right_out_0[20] chanx_right_out_0[21] chanx_right_out_0[22]
+ chanx_right_out_0[23] chanx_right_out_0[24] chanx_right_out_0[25] chanx_right_out_0[26]
+ chanx_right_out_0[27] chanx_right_out_0[28] chanx_right_out_0[29] chanx_right_out_0[2]
+ chanx_right_out_0[3] chanx_right_out_0[4] chanx_right_out_0[5] chanx_right_out_0[6]
+ chanx_right_out_0[7] chanx_right_out_0[8] chanx_right_out_0[9] chany_top_in[0] chany_top_in[10]
+ chany_top_in[11] chany_top_in[12] chany_top_in[13] chany_top_in[14] chany_top_in[15]
+ chany_top_in[16] chany_top_in[17] chany_top_in[18] chany_top_in[19] chany_top_in[1]
+ chany_top_in[20] chany_top_in[21] chany_top_in[22] chany_top_in[23] chany_top_in[24]
+ chany_top_in[25] chany_top_in[26] chany_top_in[27] chany_top_in[28] chany_top_in[29]
+ chany_top_in[2] chany_top_in[3] chany_top_in[4] chany_top_in[5] chany_top_in[6]
+ chany_top_in[7] chany_top_in[8] chany_top_in[9] chany_top_out[0] chany_top_out[10]
+ chany_top_out[11] chany_top_out[12] chany_top_out[13] chany_top_out[14] chany_top_out[15]
+ chany_top_out[16] chany_top_out[17] chany_top_out[18] chany_top_out[19] chany_top_out[1]
+ chany_top_out[20] chany_top_out[21] chany_top_out[22] chany_top_out[23] chany_top_out[24]
+ chany_top_out[25] chany_top_out[26] chany_top_out[27] chany_top_out[28] chany_top_out[29]
+ chany_top_out[2] chany_top_out[3] chany_top_out[4] chany_top_out[5] chany_top_out[6]
+ chany_top_out[7] chany_top_out[8] chany_top_out[9] gfpga_pad_io_soc_dir[0] gfpga_pad_io_soc_dir[1]
+ gfpga_pad_io_soc_dir[2] gfpga_pad_io_soc_dir[3] gfpga_pad_io_soc_in[0] gfpga_pad_io_soc_in[1]
+ gfpga_pad_io_soc_in[2] gfpga_pad_io_soc_in[3] gfpga_pad_io_soc_out[0] gfpga_pad_io_soc_out[1]
+ gfpga_pad_io_soc_out[2] gfpga_pad_io_soc_out[3] isol_n prog_clk prog_reset_top_in
+ reset_top_in right_bottom_grid_top_width_0_height_0_subtile_0__pin_inpad_0_ right_bottom_grid_top_width_0_height_0_subtile_1__pin_inpad_0_
+ right_bottom_grid_top_width_0_height_0_subtile_2__pin_inpad_0_ right_bottom_grid_top_width_0_height_0_subtile_3__pin_inpad_0_
+ test_enable_top_in top_left_grid_right_width_0_height_0_subtile_0__pin_O_10_ top_left_grid_right_width_0_height_0_subtile_0__pin_O_11_
+ top_left_grid_right_width_0_height_0_subtile_0__pin_O_12_ top_left_grid_right_width_0_height_0_subtile_0__pin_O_13_
+ top_left_grid_right_width_0_height_0_subtile_0__pin_O_14_ top_left_grid_right_width_0_height_0_subtile_0__pin_O_15_
+ top_left_grid_right_width_0_height_0_subtile_0__pin_O_8_ top_left_grid_right_width_0_height_0_subtile_0__pin_O_9_
+ top_width_0_height_0_subtile_0__pin_inpad_0_ top_width_0_height_0_subtile_1__pin_inpad_0_
+ top_width_0_height_0_subtile_2__pin_inpad_0_ top_width_0_height_0_subtile_3__pin_inpad_0_
XTAP_199 VGND VPWR sky130_fd_sc_hd__tapvpwrvgnd_1
XFILLER_82_501 VGND VGND VPWR VPWR sky130_ef_sc_hd__decap_12
XFILLER_27_417 VGND VGND VPWR VPWR sky130_ef_sc_hd__decap_12
XFILLER_94_383 VGND VGND VPWR VPWR sky130_fd_sc_hd__fill_1
XFILLER_35_461 VGND VGND VPWR VPWR sky130_ef_sc_hd__decap_12
XFILLER_22_133 VGND VGND VPWR VPWR sky130_fd_sc_hd__decap_6
XFILLER_52_29 VGND VGND VPWR VPWR sky130_ef_sc_hd__decap_12
XFILLER_50_475 VGND VGND VPWR VPWR sky130_fd_sc_hd__fill_1
XFILLER_22_177 VGND VGND VPWR VPWR sky130_ef_sc_hd__decap_12
XFILLER_50_497 VGND VGND VPWR VPWR sky130_ef_sc_hd__decap_12
XFILLER_89_100 VGND VGND VPWR VPWR sky130_ef_sc_hd__decap_12
XFILLER_89_199 VGND VGND VPWR VPWR sky130_ef_sc_hd__decap_12
XFILLER_92_309 VGND VGND VPWR VPWR sky130_ef_sc_hd__decap_12
XFILLER_45_225 VGND VGND VPWR VPWR sky130_ef_sc_hd__decap_12
XFILLER_26_41 VGND VGND VPWR VPWR sky130_ef_sc_hd__decap_12
Xsb_1__0_.mem_right_track_12.sky130_fd_sc_hd__dfrtp_1_1_ clknet_4_9_0_prog_clk sb_1__0_.mem_right_track_12.mem_out\[0\]
+ net98 VGND VGND VPWR VPWR sb_1__0_.mem_right_track_12.mem_out\[1\] sky130_fd_sc_hd__dfrtp_1
XFILLER_13_111 VGND VGND VPWR VPWR sky130_fd_sc_hd__fill_1
XFILLER_26_85 VGND VGND VPWR VPWR sky130_ef_sc_hd__decap_12
Xcbx_1__0_.grid_io_bottom_bottom_8__0_.logical_tile_io_mode_io__0.logical_tile_io_mode_physical__iopad_0.io_0_.IN_PROTECT_GATE
+ net96 cbx_1__0_.grid_io_bottom_bottom_8__0_.logical_tile_io_mode_io__0.logical_tile_io_mode_physical__iopad_0.io_0_.SOC_DIR_N
+ VGND VGND VPWR VPWR top_width_0_height_0_subtile_0__pin_inpad_0_ sky130_fd_sc_hd__ebufn_8
XFILLER_9_137 VGND VGND VPWR VPWR sky130_ef_sc_hd__decap_12
XFILLER_41_497 VGND VGND VPWR VPWR sky130_fd_sc_hd__decap_6
XFILLER_3_45 VGND VGND VPWR VPWR sky130_fd_sc_hd__decap_8
XFILLER_95_169 VGND VGND VPWR VPWR sky130_fd_sc_hd__decap_8
XFILLER_64_501 VGND VGND VPWR VPWR sky130_ef_sc_hd__decap_12
XFILLER_67_81 VGND VGND VPWR VPWR sky130_ef_sc_hd__decap_12
XFILLER_17_461 VGND VGND VPWR VPWR sky130_ef_sc_hd__decap_12
XFILLER_32_475 VGND VGND VPWR VPWR sky130_fd_sc_hd__fill_1
Xsb_1__0_.mux_top_track_42.mux_l2_in_0__246 VGND VGND VPWR VPWR sb_1__0_.mux_top_track_42.mux_l2_in_0__246/HI
+ net246 sky130_fd_sc_hd__conb_1
XFILLER_86_136 VGND VGND VPWR VPWR sky130_fd_sc_hd__decap_4
Xsb_1__0_.mux_left_track_29.mux_l1_in_1_ net39 net86 sb_1__0_.mem_left_track_29.mem_out\[0\]
+ VGND VGND VPWR VPWR sb_1__0_.mux_left_track_29.sky130_fd_sc_hd__mux2_1_1_X sky130_fd_sc_hd__mux2_1
XFILLER_74_309 VGND VGND VPWR VPWR sky130_fd_sc_hd__fill_2
XFILLER_27_225 VGND VGND VPWR VPWR sky130_ef_sc_hd__decap_12
XFILLER_82_320 VGND VGND VPWR VPWR sky130_fd_sc_hd__decap_4
XFILLER_12_21 VGND VGND VPWR VPWR sky130_fd_sc_hd__decap_6
XFILLER_12_65 VGND VGND VPWR VPWR sky130_ef_sc_hd__decap_12
XFILLER_2_357 VGND VGND VPWR VPWR sky130_fd_sc_hd__decap_6
Xsb_1__0_.mux_right_track_0.mux_l1_in_0_ net91 net73 sb_1__0_.mem_right_track_0.mem_out\[0\]
+ VGND VGND VPWR VPWR sb_1__0_.mux_right_track_0.sky130_fd_sc_hd__mux2_1_0_X sky130_fd_sc_hd__mux2_1
XFILLER_77_125 VGND VGND VPWR VPWR sky130_ef_sc_hd__decap_12
XFILLER_92_106 VGND VGND VPWR VPWR sky130_ef_sc_hd__decap_12
XFILLER_46_501 VGND VGND VPWR VPWR sky130_ef_sc_hd__decap_12
Xsb_1__0_.mem_right_track_44.sky130_fd_sc_hd__dfrtp_1_0_ clknet_4_12_0_prog_clk sb_1__0_.mem_right_track_36.ccff_tail
+ net98 VGND VGND VPWR VPWR sb_1__0_.mem_right_track_44.mem_out\[0\] sky130_fd_sc_hd__dfrtp_1
XFILLER_77_169 VGND VGND VPWR VPWR sky130_ef_sc_hd__decap_12
XFILLER_37_51 VGND VGND VPWR VPWR sky130_fd_sc_hd__decap_4
XFILLER_18_258 VGND VGND VPWR VPWR sky130_fd_sc_hd__decap_4
XFILLER_33_217 VGND VGND VPWR VPWR sky130_fd_sc_hd__decap_6
Xsb_1__0_.mem_top_track_14.sky130_fd_sc_hd__dfrtp_1_1_ clknet_4_13_0_prog_clk sb_1__0_.mem_top_track_14.mem_out\[0\]
+ net98 VGND VGND VPWR VPWR sb_1__0_.mem_top_track_14.mem_out\[1\] sky130_fd_sc_hd__dfrtp_1
XFILLER_14_475 VGND VGND VPWR VPWR sky130_fd_sc_hd__fill_1
XFILLER_41_261 VGND VGND VPWR VPWR sky130_ef_sc_hd__decap_12
Xsb_1__0_.mux_top_track_4.mux_l2_in_1_ net244 net17 sb_1__0_.mem_top_track_4.mem_out\[1\]
+ VGND VGND VPWR VPWR sb_1__0_.mux_top_track_4.sky130_fd_sc_hd__mux2_1_3_X sky130_fd_sc_hd__mux2_1
XFILLER_5_162 VGND VGND VPWR VPWR sky130_fd_sc_hd__decap_6
XFILLER_68_103 VGND VGND VPWR VPWR sky130_fd_sc_hd__fill_1
Xcbx_1__0_.cbx_8__0_.mux_top_ipin_1.mux_l2_in_3_ net255 net58 cbx_1__0_.cbx_8__0_.mem_top_ipin_1.mem_out\[1\]
+ VGND VGND VPWR VPWR cbx_1__0_.cbx_8__0_.mux_top_ipin_1.sky130_fd_sc_hd__mux2_1_8_X
+ sky130_fd_sc_hd__mux2_1
XFILLER_56_309 VGND VGND VPWR VPWR sky130_fd_sc_hd__fill_2
XFILLER_68_147 VGND VGND VPWR VPWR sky130_fd_sc_hd__fill_1
XFILLER_49_361 VGND VGND VPWR VPWR sky130_ef_sc_hd__decap_12
XFILLER_91_161 VGND VGND VPWR VPWR sky130_fd_sc_hd__decap_6
XFILLER_20_412 VGND VGND VPWR VPWR sky130_fd_sc_hd__decap_8
XFILLER_20_445 VGND VGND VPWR VPWR sky130_ef_sc_hd__decap_12
Xsb_1__0_.mux_left_track_53.mux_l2_in_1__215 VGND VGND VPWR VPWR sb_1__0_.mux_left_track_53.mux_l2_in_1__215/HI
+ net215 sky130_fd_sc_hd__conb_1
XFILLER_20_489 VGND VGND VPWR VPWR sky130_ef_sc_hd__decap_12
XFILLER_59_125 VGND VGND VPWR VPWR sky130_fd_sc_hd__decap_4
XFILLER_59_169 VGND VGND VPWR VPWR sky130_fd_sc_hd__fill_2
XFILLER_28_501 VGND VGND VPWR VPWR sky130_ef_sc_hd__decap_12
XFILLER_74_139 VGND VGND VPWR VPWR sky130_fd_sc_hd__fill_1
XFILLER_74_27 VGND VGND VPWR VPWR sky130_fd_sc_hd__fill_1
XFILLER_15_217 VGND VGND VPWR VPWR sky130_fd_sc_hd__decap_6
XFILLER_82_194 VGND VGND VPWR VPWR sky130_fd_sc_hd__fill_2
Xsb_1__0_.mem_top_track_6.sky130_fd_sc_hd__dfrtp_1_0_ clknet_4_14_0_prog_clk sb_1__0_.mem_top_track_4.ccff_tail
+ net98 VGND VGND VPWR VPWR sb_1__0_.mem_top_track_6.mem_out\[0\] sky130_fd_sc_hd__dfrtp_2
X_200_ cbx_1__0_.grid_io_bottom_bottom_8__0_.logical_tile_io_mode_io__1.gfpga_pad_io_soc_out
+ VGND VGND VPWR VPWR net209 sky130_fd_sc_hd__clkbuf_2
XFILLER_23_261 VGND VGND VPWR VPWR sky130_ef_sc_hd__decap_12
XFILLER_7_405 VGND VGND VPWR VPWR sky130_ef_sc_hd__decap_12
Xsb_1__0_.mem_left_track_11.sky130_fd_sc_hd__dfrtp_1_0_ clknet_4_6_0_prog_clk sb_1__0_.mem_left_track_11.ccff_head
+ net98 VGND VGND VPWR VPWR sb_1__0_.mem_left_track_11.mem_out\[0\] sky130_fd_sc_hd__dfrtp_4
X_131_ sb_1__0_.mux_left_track_5.out VGND VGND VPWR VPWR net132 sky130_fd_sc_hd__clkbuf_2
XFILLER_7_449 VGND VGND VPWR VPWR sky130_ef_sc_hd__decap_12
XFILLER_2_121 VGND VGND VPWR VPWR sky130_ef_sc_hd__decap_12
XFILLER_2_165 VGND VGND VPWR VPWR sky130_ef_sc_hd__decap_12
XFILLER_78_445 VGND VGND VPWR VPWR sky130_ef_sc_hd__decap_12
XFILLER_38_309 VGND VGND VPWR VPWR sky130_ef_sc_hd__decap_12
Xsb_1__0_.mem_top_track_46.sky130_fd_sc_hd__dfrtp_1_0_ clknet_4_4_0_prog_clk sb_1__0_.mem_top_track_44.ccff_tail
+ net98 VGND VGND VPWR VPWR sb_1__0_.mem_top_track_46.mem_out\[0\] sky130_fd_sc_hd__dfrtp_1
XFILLER_48_83 VGND VGND VPWR VPWR sky130_fd_sc_hd__fill_1
XFILLER_78_489 VGND VGND VPWR VPWR sky130_ef_sc_hd__decap_12
XFILLER_0_57 VGND VGND VPWR VPWR sky130_fd_sc_hd__fill_2
XFILLER_9_11 VGND VGND VPWR VPWR sky130_ef_sc_hd__decap_12
XFILLER_9_55 VGND VGND VPWR VPWR sky130_fd_sc_hd__fill_1
Xsb_1__0_.mux_top_track_28.mux_l1_in_0_ net29 net59 sb_1__0_.mem_top_track_28.mem_out\[0\]
+ VGND VGND VPWR VPWR sb_1__0_.mux_top_track_28.sky130_fd_sc_hd__mux2_1_0_X sky130_fd_sc_hd__mux2_1
XFILLER_50_3 VGND VGND VPWR VPWR sky130_fd_sc_hd__fill_2
XFILLER_88_209 VGND VGND VPWR VPWR sky130_ef_sc_hd__decap_12
XFILLER_69_401 VGND VGND VPWR VPWR sky130_fd_sc_hd__fill_1
XFILLER_84_415 VGND VGND VPWR VPWR sky130_fd_sc_hd__decap_4
XFILLER_56_139 VGND VGND VPWR VPWR sky130_fd_sc_hd__fill_1
XFILLER_12_209 VGND VGND VPWR VPWR sky130_ef_sc_hd__decap_12
XFILLER_52_345 VGND VGND VPWR VPWR sky130_ef_sc_hd__decap_12
XFILLER_52_389 VGND VGND VPWR VPWR sky130_ef_sc_hd__decap_12
XFILLER_20_253 VGND VGND VPWR VPWR sky130_ef_sc_hd__decap_12
XFILLER_60_29 VGND VGND VPWR VPWR sky130_ef_sc_hd__decap_12
XFILLER_4_419 VGND VGND VPWR VPWR sky130_fd_sc_hd__fill_1
XFILLER_87_231 VGND VGND VPWR VPWR sky130_ef_sc_hd__decap_12
XFILLER_85_15 VGND VGND VPWR VPWR sky130_ef_sc_hd__decap_12
Xsb_1__0_.mux_top_track_30.mux_l1_in_0_ net28 net58 sb_1__0_.mem_top_track_30.mem_out\[0\]
+ VGND VGND VPWR VPWR sb_1__0_.mux_top_track_30.sky130_fd_sc_hd__mux2_1_0_X sky130_fd_sc_hd__mux2_1
XFILLER_18_53 VGND VGND VPWR VPWR sky130_ef_sc_hd__decap_12
XFILLER_18_97 VGND VGND VPWR VPWR sky130_ef_sc_hd__decap_12
XFILLER_28_397 VGND VGND VPWR VPWR sky130_fd_sc_hd__decap_3
XFILLER_55_194 VGND VGND VPWR VPWR sky130_fd_sc_hd__decap_3
XFILLER_70_153 VGND VGND VPWR VPWR sky130_fd_sc_hd__decap_3
XFILLER_34_41 VGND VGND VPWR VPWR sky130_ef_sc_hd__decap_12
XFILLER_34_85 VGND VGND VPWR VPWR sky130_ef_sc_hd__decap_12
XFILLER_70_197 VGND VGND VPWR VPWR sky130_fd_sc_hd__fill_2
Xcbx_1__0_.cbx_8__0_.mux_top_ipin_1.mux_l1_in_4_ net35 net4 cbx_1__0_.cbx_8__0_.mem_top_ipin_1.mem_out\[0\]
+ VGND VGND VPWR VPWR cbx_1__0_.cbx_8__0_.mux_top_ipin_1.sky130_fd_sc_hd__mux2_1_4_X
+ sky130_fd_sc_hd__mux2_1
X_114_ net35 VGND VGND VPWR VPWR net114 sky130_fd_sc_hd__clkbuf_2
XFILLER_7_279 VGND VGND VPWR VPWR sky130_fd_sc_hd__fill_1
XFILLER_3_441 VGND VGND VPWR VPWR sky130_fd_sc_hd__decap_6
XTAP_507 VGND VPWR sky130_fd_sc_hd__tapvpwrvgnd_1
XFILLER_3_485 VGND VGND VPWR VPWR sky130_ef_sc_hd__decap_12
XTAP_518 VGND VPWR sky130_fd_sc_hd__tapvpwrvgnd_1
XTAP_529 VGND VPWR sky130_fd_sc_hd__tapvpwrvgnd_1
XFILLER_59_93 VGND VGND VPWR VPWR sky130_ef_sc_hd__decap_12
XFILLER_78_253 VGND VGND VPWR VPWR sky130_fd_sc_hd__fill_2
XFILLER_93_201 VGND VGND VPWR VPWR sky130_fd_sc_hd__fill_1
Xsb_1__0_.mux_top_track_42.mux_l2_in_0_ net246 sb_1__0_.mux_top_track_42.sky130_fd_sc_hd__mux2_1_0_X
+ sb_1__0_.mem_top_track_42.ccff_tail VGND VGND VPWR VPWR sb_1__0_.mux_top_track_42.sky130_fd_sc_hd__mux2_1_1_X
+ sky130_fd_sc_hd__mux2_1
XFILLER_78_275 VGND VGND VPWR VPWR sky130_fd_sc_hd__decap_4
XFILLER_38_139 VGND VGND VPWR VPWR sky130_fd_sc_hd__fill_1
XFILLER_81_429 VGND VGND VPWR VPWR sky130_ef_sc_hd__decap_12
XFILLER_34_301 VGND VGND VPWR VPWR sky130_fd_sc_hd__decap_6
XFILLER_46_194 VGND VGND VPWR VPWR sky130_fd_sc_hd__fill_2
XFILLER_34_345 VGND VGND VPWR VPWR sky130_ef_sc_hd__decap_12
XFILLER_34_389 VGND VGND VPWR VPWR sky130_ef_sc_hd__decap_12
XFILLER_61_175 VGND VGND VPWR VPWR sky130_fd_sc_hd__fill_1
XFILLER_84_201 VGND VGND VPWR VPWR sky130_fd_sc_hd__fill_1
XFILLER_69_275 VGND VGND VPWR VPWR sky130_fd_sc_hd__decap_4
XFILLER_44_109 VGND VGND VPWR VPWR sky130_ef_sc_hd__decap_12
XFILLER_37_161 VGND VGND VPWR VPWR sky130_fd_sc_hd__decap_6
XFILLER_52_197 VGND VGND VPWR VPWR sky130_ef_sc_hd__decap_12
Xsb_1__0_.mem_right_track_2.sky130_fd_sc_hd__dfrtp_1_1_ clknet_4_14_0_prog_clk sb_1__0_.mem_right_track_2.mem_out\[0\]
+ net98 VGND VGND VPWR VPWR sb_1__0_.mem_right_track_2.mem_out\[1\] sky130_fd_sc_hd__dfrtp_1
XFILLER_4_227 VGND VGND VPWR VPWR sky130_ef_sc_hd__decap_12
XFILLER_20_65 VGND VGND VPWR VPWR sky130_ef_sc_hd__decap_12
Xcbx_1__0_.cbx_8__0_.mux_top_ipin_1.mux_l4_in_0_ cbx_1__0_.cbx_8__0_.mux_top_ipin_1.sky130_fd_sc_hd__mux2_1_10_X
+ cbx_1__0_.cbx_8__0_.mux_top_ipin_1.sky130_fd_sc_hd__mux2_1_9_X cbx_1__0_.cbx_8__0_.mem_top_ipin_1.ccff_tail
+ VGND VGND VPWR VPWR cbx_1__0_.cbx_8__0_.mux_top_ipin_1.sky130_fd_sc_hd__mux2_1_11_X
+ sky130_fd_sc_hd__mux2_1
XFILLER_0_433 VGND VGND VPWR VPWR sky130_ef_sc_hd__decap_12
XFILLER_0_477 VGND VGND VPWR VPWR sky130_fd_sc_hd__decap_4
XFILLER_16_345 VGND VGND VPWR VPWR sky130_ef_sc_hd__decap_12
XFILLER_16_389 VGND VGND VPWR VPWR sky130_fd_sc_hd__decap_4
XFILLER_71_473 VGND VGND VPWR VPWR sky130_ef_sc_hd__decap_12
XFILLER_31_337 VGND VGND VPWR VPWR sky130_ef_sc_hd__decap_12
XFILLER_61_94 VGND VGND VPWR VPWR sky130_ef_sc_hd__decap_12
XFILLER_6_23 VGND VGND VPWR VPWR sky130_fd_sc_hd__decap_4
XANTENNA_5 top_width_0_height_0_subtile_2__pin_inpad_0_ VGND VGND VPWR VPWR sky130_fd_sc_hd__diode_2
XTAP_315 VGND VPWR sky130_fd_sc_hd__tapvpwrvgnd_1
XTAP_304 VGND VPWR sky130_fd_sc_hd__tapvpwrvgnd_1
XTAP_348 VGND VPWR sky130_fd_sc_hd__tapvpwrvgnd_1
XTAP_337 VGND VPWR sky130_fd_sc_hd__tapvpwrvgnd_1
XTAP_326 VGND VPWR sky130_fd_sc_hd__tapvpwrvgnd_1
XFILLER_3_293 VGND VGND VPWR VPWR sky130_ef_sc_hd__decap_12
XTAP_359 VGND VPWR sky130_fd_sc_hd__tapvpwrvgnd_1
XFILLER_94_521 VGND VGND VPWR VPWR sky130_fd_sc_hd__decap_6
XFILLER_13_3 VGND VGND VPWR VPWR sky130_ef_sc_hd__decap_12
XFILLER_26_109 VGND VGND VPWR VPWR sky130_ef_sc_hd__decap_12
XFILLER_19_161 VGND VGND VPWR VPWR sky130_fd_sc_hd__decap_6
XFILLER_81_248 VGND VGND VPWR VPWR sky130_fd_sc_hd__decap_8
XFILLER_34_153 VGND VGND VPWR VPWR sky130_ef_sc_hd__decap_12
XFILLER_34_197 VGND VGND VPWR VPWR sky130_ef_sc_hd__decap_12
XFILLER_89_337 VGND VGND VPWR VPWR sky130_ef_sc_hd__decap_12
XFILLER_57_201 VGND VGND VPWR VPWR sky130_ef_sc_hd__decap_12
XTAP_860 VGND VPWR sky130_fd_sc_hd__tapvpwrvgnd_1
XTAP_871 VGND VPWR sky130_fd_sc_hd__tapvpwrvgnd_1
XTAP_882 VGND VPWR sky130_fd_sc_hd__tapvpwrvgnd_1
XTAP_893 VGND VPWR sky130_fd_sc_hd__tapvpwrvgnd_1
XFILLER_45_429 VGND VGND VPWR VPWR sky130_ef_sc_hd__decap_12
XFILLER_82_27 VGND VGND VPWR VPWR sky130_fd_sc_hd__fill_1
XFILLER_13_337 VGND VGND VPWR VPWR sky130_ef_sc_hd__decap_12
XFILLER_5_503 VGND VGND VPWR VPWR sky130_fd_sc_hd__fill_1
XFILLER_5_525 VGND VGND VPWR VPWR sky130_fd_sc_hd__fill_2
XFILLER_48_289 VGND VGND VPWR VPWR sky130_ef_sc_hd__decap_12
XFILLER_56_83 VGND VGND VPWR VPWR sky130_fd_sc_hd__fill_1
XFILLER_63_204 VGND VGND VPWR VPWR sky130_fd_sc_hd__decap_8
XFILLER_16_153 VGND VGND VPWR VPWR sky130_ef_sc_hd__decap_12
XFILLER_16_197 VGND VGND VPWR VPWR sky130_ef_sc_hd__decap_12
XFILLER_71_281 VGND VGND VPWR VPWR sky130_fd_sc_hd__decap_8
XPHY_170 VGND VGND VPWR VPWR sky130_fd_sc_hd__decap_3
XFILLER_31_167 VGND VGND VPWR VPWR sky130_fd_sc_hd__fill_1
XPHY_181 VGND VGND VPWR VPWR sky130_fd_sc_hd__decap_3
XFILLER_8_363 VGND VGND VPWR VPWR sky130_fd_sc_hd__fill_1
XFILLER_39_223 VGND VGND VPWR VPWR sky130_fd_sc_hd__fill_1
XFILLER_82_513 VGND VGND VPWR VPWR sky130_ef_sc_hd__decap_12
XFILLER_27_429 VGND VGND VPWR VPWR sky130_ef_sc_hd__decap_12
XFILLER_54_226 VGND VGND VPWR VPWR sky130_fd_sc_hd__decap_4
XFILLER_35_473 VGND VGND VPWR VPWR sky130_ef_sc_hd__decap_12
Xcbx_1__0_.cbx_8__0_.mux_top_ipin_1.mux_l3_in_1_ cbx_1__0_.cbx_8__0_.mux_top_ipin_1.sky130_fd_sc_hd__mux2_1_8_X
+ cbx_1__0_.cbx_8__0_.mux_top_ipin_1.sky130_fd_sc_hd__mux2_1_7_X cbx_1__0_.cbx_8__0_.mem_top_ipin_1.mem_out\[2\]
+ VGND VGND VPWR VPWR cbx_1__0_.cbx_8__0_.mux_top_ipin_1.sky130_fd_sc_hd__mux2_1_10_X
+ sky130_fd_sc_hd__mux2_1
XFILLER_50_421 VGND VGND VPWR VPWR sky130_ef_sc_hd__decap_12
XFILLER_10_307 VGND VGND VPWR VPWR sky130_fd_sc_hd__fill_1
XFILLER_22_189 VGND VGND VPWR VPWR sky130_fd_sc_hd__decap_6
XFILLER_77_27 VGND VGND VPWR VPWR sky130_fd_sc_hd__fill_1
XFILLER_77_49 VGND VGND VPWR VPWR sky130_fd_sc_hd__decap_6
XTAP_690 VGND VPWR sky130_fd_sc_hd__tapvpwrvgnd_1
XFILLER_93_37 VGND VGND VPWR VPWR sky130_fd_sc_hd__fill_1
XFILLER_85_373 VGND VGND VPWR VPWR sky130_ef_sc_hd__decap_12
XFILLER_45_237 VGND VGND VPWR VPWR sky130_ef_sc_hd__decap_12
XFILLER_26_53 VGND VGND VPWR VPWR sky130_ef_sc_hd__decap_12
Xsb_1__0_.mem_right_track_12.sky130_fd_sc_hd__dfrtp_1_0_ clknet_4_14_0_prog_clk sb_1__0_.mem_right_track_10.ccff_tail
+ net98 VGND VGND VPWR VPWR sb_1__0_.mem_right_track_12.mem_out\[0\] sky130_fd_sc_hd__dfrtp_2
XFILLER_26_97 VGND VGND VPWR VPWR sky130_ef_sc_hd__decap_12
XFILLER_53_281 VGND VGND VPWR VPWR sky130_fd_sc_hd__decap_3
XFILLER_13_167 VGND VGND VPWR VPWR sky130_fd_sc_hd__fill_1
XFILLER_9_105 VGND VGND VPWR VPWR sky130_fd_sc_hd__decap_6
XFILLER_9_149 VGND VGND VPWR VPWR sky130_ef_sc_hd__decap_12
XFILLER_42_41 VGND VGND VPWR VPWR sky130_ef_sc_hd__decap_12
XFILLER_42_85 VGND VGND VPWR VPWR sky130_ef_sc_hd__decap_12
XFILLER_3_57 VGND VGND VPWR VPWR sky130_ef_sc_hd__decap_12
XFILLER_67_93 VGND VGND VPWR VPWR sky130_ef_sc_hd__decap_12
XFILLER_64_513 VGND VGND VPWR VPWR sky130_ef_sc_hd__decap_12
XFILLER_76_362 VGND VGND VPWR VPWR sky130_fd_sc_hd__fill_2
XFILLER_17_473 VGND VGND VPWR VPWR sky130_ef_sc_hd__decap_12
XFILLER_83_81 VGND VGND VPWR VPWR sky130_ef_sc_hd__decap_12
XFILLER_32_421 VGND VGND VPWR VPWR sky130_ef_sc_hd__decap_12
XFILLER_80_3 VGND VGND VPWR VPWR sky130_fd_sc_hd__fill_2
Xsb_1__0_.mux_left_track_29.mux_l1_in_0_ net68 net80 sb_1__0_.mem_left_track_29.mem_out\[0\]
+ VGND VGND VPWR VPWR sb_1__0_.mux_left_track_29.sky130_fd_sc_hd__mux2_1_0_X sky130_fd_sc_hd__mux2_1
XFILLER_27_237 VGND VGND VPWR VPWR sky130_ef_sc_hd__decap_12
XFILLER_82_365 VGND VGND VPWR VPWR sky130_fd_sc_hd__fill_2
XFILLER_82_376 VGND VGND VPWR VPWR sky130_fd_sc_hd__decap_4
XFILLER_35_281 VGND VGND VPWR VPWR sky130_ef_sc_hd__decap_12
XFILLER_12_77 VGND VGND VPWR VPWR sky130_fd_sc_hd__decap_6
XFILLER_88_15 VGND VGND VPWR VPWR sky130_ef_sc_hd__decap_12
XFILLER_77_137 VGND VGND VPWR VPWR sky130_ef_sc_hd__decap_12
XFILLER_77_159 VGND VGND VPWR VPWR sky130_fd_sc_hd__decap_4
XFILLER_46_513 VGND VGND VPWR VPWR sky130_ef_sc_hd__decap_12
XFILLER_58_362 VGND VGND VPWR VPWR sky130_fd_sc_hd__fill_2
XFILLER_85_181 VGND VGND VPWR VPWR sky130_ef_sc_hd__decap_12
XFILLER_61_505 VGND VGND VPWR VPWR sky130_ef_sc_hd__decap_12
Xsb_1__0_.mem_top_track_14.sky130_fd_sc_hd__dfrtp_1_0_ clknet_4_13_0_prog_clk sb_1__0_.mem_top_track_12.ccff_tail
+ net98 VGND VGND VPWR VPWR sb_1__0_.mem_top_track_14.mem_out\[0\] sky130_fd_sc_hd__dfrtp_1
XFILLER_14_421 VGND VGND VPWR VPWR sky130_ef_sc_hd__decap_12
XFILLER_41_273 VGND VGND VPWR VPWR sky130_fd_sc_hd__decap_6
Xsb_1__0_.mux_top_track_4.mux_l2_in_0_ sb_1__0_.mux_top_track_4.sky130_fd_sc_hd__mux2_1_1_X
+ sb_1__0_.mux_top_track_4.sky130_fd_sc_hd__mux2_1_0_X sb_1__0_.mem_top_track_4.mem_out\[1\]
+ VGND VGND VPWR VPWR sb_1__0_.mux_top_track_4.sky130_fd_sc_hd__mux2_1_2_X sky130_fd_sc_hd__mux2_1
Xclkbuf_4_6_0_prog_clk clknet_0_prog_clk VGND VGND VPWR VPWR clknet_4_6_0_prog_clk
+ sky130_fd_sc_hd__clkbuf_8
Xcbx_1__0_.cbx_8__0_.mux_top_ipin_1.mux_l2_in_2_ net27 cbx_1__0_.cbx_8__0_.mux_top_ipin_1.sky130_fd_sc_hd__mux2_1_4_X
+ cbx_1__0_.cbx_8__0_.mem_top_ipin_1.mem_out\[1\] VGND VGND VPWR VPWR cbx_1__0_.cbx_8__0_.mux_top_ipin_1.sky130_fd_sc_hd__mux2_1_7_X
+ sky130_fd_sc_hd__mux2_1
XFILLER_78_81 VGND VGND VPWR VPWR sky130_fd_sc_hd__decap_3
XFILLER_1_391 VGND VGND VPWR VPWR sky130_fd_sc_hd__fill_1
XFILLER_49_373 VGND VGND VPWR VPWR sky130_ef_sc_hd__decap_12
Xsb_1__0_.mux_top_track_24.mux_l1_in_1__237 VGND VGND VPWR VPWR sb_1__0_.mux_top_track_24.mux_l1_in_1__237/HI
+ net237 sky130_fd_sc_hd__conb_1
XFILLER_64_354 VGND VGND VPWR VPWR sky130_fd_sc_hd__decap_4
XFILLER_64_365 VGND VGND VPWR VPWR sky130_fd_sc_hd__decap_6
XFILLER_17_281 VGND VGND VPWR VPWR sky130_ef_sc_hd__decap_12
XFILLER_32_251 VGND VGND VPWR VPWR sky130_fd_sc_hd__fill_1
XFILLER_20_457 VGND VGND VPWR VPWR sky130_ef_sc_hd__decap_12
Xsb_1__0_.mux_top_track_8.sky130_fd_sc_hd__buf_4_0_ sb_1__0_.mux_top_track_8.sky130_fd_sc_hd__mux2_1_5_X
+ VGND VGND VPWR VPWR sb_1__0_.mux_top_track_8.out sky130_fd_sc_hd__clkbuf_1
Xoutput210 net210 VGND VGND VPWR VPWR gfpga_pad_io_soc_out[3] sky130_fd_sc_hd__buf_12
XFILLER_58_29 VGND VGND VPWR VPWR sky130_ef_sc_hd__decap_12
XFILLER_28_513 VGND VGND VPWR VPWR sky130_ef_sc_hd__decap_12
XFILLER_67_181 VGND VGND VPWR VPWR sky130_fd_sc_hd__fill_2
XFILLER_67_192 VGND VGND VPWR VPWR sky130_fd_sc_hd__decap_8
XFILLER_43_505 VGND VGND VPWR VPWR sky130_ef_sc_hd__decap_12
XFILLER_70_302 VGND VGND VPWR VPWR sky130_fd_sc_hd__decap_6
XFILLER_90_27 VGND VGND VPWR VPWR sky130_fd_sc_hd__fill_1
XFILLER_23_273 VGND VGND VPWR VPWR sky130_fd_sc_hd__decap_6
X_130_ sb_1__0_.mux_left_track_7.out VGND VGND VPWR VPWR net131 sky130_fd_sc_hd__clkbuf_2
XFILLER_7_417 VGND VGND VPWR VPWR sky130_ef_sc_hd__decap_12
XFILLER_2_133 VGND VGND VPWR VPWR sky130_fd_sc_hd__decap_6
XFILLER_2_177 VGND VGND VPWR VPWR sky130_ef_sc_hd__decap_12
XFILLER_93_405 VGND VGND VPWR VPWR sky130_ef_sc_hd__decap_12
XFILLER_78_457 VGND VGND VPWR VPWR sky130_ef_sc_hd__decap_12
XFILLER_65_107 VGND VGND VPWR VPWR sky130_fd_sc_hd__decap_4
XFILLER_93_449 VGND VGND VPWR VPWR sky130_ef_sc_hd__decap_12
XFILLER_46_321 VGND VGND VPWR VPWR sky130_ef_sc_hd__decap_12
XFILLER_46_365 VGND VGND VPWR VPWR sky130_ef_sc_hd__decap_12
XFILLER_64_83 VGND VGND VPWR VPWR sky130_fd_sc_hd__fill_1
XFILLER_14_251 VGND VGND VPWR VPWR sky130_fd_sc_hd__fill_1
XFILLER_9_23 VGND VGND VPWR VPWR sky130_ef_sc_hd__decap_12
XFILLER_61_379 VGND VGND VPWR VPWR sky130_ef_sc_hd__decap_12
XFILLER_89_91 VGND VGND VPWR VPWR sky130_fd_sc_hd__decap_4
XFILLER_43_3 VGND VGND VPWR VPWR sky130_ef_sc_hd__decap_12
XFILLER_25_505 VGND VGND VPWR VPWR sky130_ef_sc_hd__decap_12
XFILLER_52_357 VGND VGND VPWR VPWR sky130_fd_sc_hd__decap_6
XFILLER_20_221 VGND VGND VPWR VPWR sky130_ef_sc_hd__decap_12
XFILLER_20_265 VGND VGND VPWR VPWR sky130_ef_sc_hd__decap_12
XFILLER_87_243 VGND VGND VPWR VPWR sky130_ef_sc_hd__decap_12
XFILLER_87_287 VGND VGND VPWR VPWR sky130_fd_sc_hd__fill_1
XFILLER_85_27 VGND VGND VPWR VPWR sky130_ef_sc_hd__decap_12
XFILLER_75_405 VGND VGND VPWR VPWR sky130_ef_sc_hd__decap_12
Xsb_1__0_.mux_top_track_4.mux_l1_in_1_ net47 net50 sb_1__0_.mem_top_track_4.mem_out\[0\]
+ VGND VGND VPWR VPWR sb_1__0_.mux_top_track_4.sky130_fd_sc_hd__mux2_1_1_X sky130_fd_sc_hd__mux2_1
XFILLER_28_321 VGND VGND VPWR VPWR sky130_ef_sc_hd__decap_12
XFILLER_75_449 VGND VGND VPWR VPWR sky130_ef_sc_hd__decap_12
XFILLER_90_419 VGND VGND VPWR VPWR sky130_fd_sc_hd__fill_1
XFILLER_18_65 VGND VGND VPWR VPWR sky130_ef_sc_hd__decap_12
XFILLER_28_365 VGND VGND VPWR VPWR sky130_ef_sc_hd__decap_12
XFILLER_43_335 VGND VGND VPWR VPWR sky130_fd_sc_hd__fill_1
XFILLER_34_53 VGND VGND VPWR VPWR sky130_ef_sc_hd__decap_12