* NGSPICE file created from bottom_tile.ext - technology: sky130A

* Black-box entry subcircuit for sky130_fd_sc_hd__fill_2 abstract view
.subckt sky130_fd_sc_hd__fill_2 VGND VNB VPB VPWR
.ends

* Black-box entry subcircuit for sky130_fd_sc_hd__tapvpwrvgnd_1 abstract view
.subckt sky130_fd_sc_hd__tapvpwrvgnd_1 VGND VPWR
.ends

* Black-box entry subcircuit for sky130_fd_sc_hd__diode_2 abstract view
.subckt sky130_fd_sc_hd__diode_2 DIODE VGND VNB VPB VPWR
.ends

* Black-box entry subcircuit for sky130_fd_sc_hd__decap_4 abstract view
.subckt sky130_fd_sc_hd__decap_4 VGND VNB VPB VPWR
.ends

* Black-box entry subcircuit for sky130_fd_sc_hd__decap_8 abstract view
.subckt sky130_fd_sc_hd__decap_8 VGND VNB VPB VPWR
.ends

* Black-box entry subcircuit for sky130_ef_sc_hd__decap_12 abstract view
.subckt sky130_ef_sc_hd__decap_12 VGND VNB VPB VPWR
.ends

* Black-box entry subcircuit for sky130_fd_sc_hd__dfrtp_1 abstract view
.subckt sky130_fd_sc_hd__dfrtp_1 CLK D RESET_B VGND VNB VPB VPWR Q
.ends

* Black-box entry subcircuit for sky130_fd_sc_hd__fill_1 abstract view
.subckt sky130_fd_sc_hd__fill_1 VGND VNB VPB VPWR
.ends

* Black-box entry subcircuit for sky130_fd_sc_hd__ebufn_8 abstract view
.subckt sky130_fd_sc_hd__ebufn_8 A TE_B VGND VNB VPB VPWR Z
.ends

* Black-box entry subcircuit for sky130_fd_sc_hd__conb_1 abstract view
.subckt sky130_fd_sc_hd__conb_1 VGND VNB VPB VPWR HI LO
.ends

* Black-box entry subcircuit for sky130_fd_sc_hd__mux2_1 abstract view
.subckt sky130_fd_sc_hd__mux2_1 A0 A1 S VGND VNB VPB VPWR X
.ends

* Black-box entry subcircuit for sky130_fd_sc_hd__decap_3 abstract view
.subckt sky130_fd_sc_hd__decap_3 VGND VNB VPB VPWR
.ends

* Black-box entry subcircuit for sky130_fd_sc_hd__decap_6 abstract view
.subckt sky130_fd_sc_hd__decap_6 VGND VNB VPB VPWR
.ends

* Black-box entry subcircuit for sky130_fd_sc_hd__dfrtp_2 abstract view
.subckt sky130_fd_sc_hd__dfrtp_2 CLK D RESET_B VGND VNB VPB VPWR Q
.ends

* Black-box entry subcircuit for sky130_fd_sc_hd__clkbuf_1 abstract view
.subckt sky130_fd_sc_hd__clkbuf_1 A VGND VNB VPB VPWR X
.ends

* Black-box entry subcircuit for sky130_fd_sc_hd__clkbuf_2 abstract view
.subckt sky130_fd_sc_hd__clkbuf_2 A VGND VNB VPB VPWR X
.ends

* Black-box entry subcircuit for sky130_fd_sc_hd__clkbuf_8 abstract view
.subckt sky130_fd_sc_hd__clkbuf_8 A VGND VNB VPB VPWR X
.ends

* Black-box entry subcircuit for sky130_fd_sc_hd__buf_12 abstract view
.subckt sky130_fd_sc_hd__buf_12 A VGND VNB VPB VPWR X
.ends

* Black-box entry subcircuit for sky130_fd_sc_hd__inv_1 abstract view
.subckt sky130_fd_sc_hd__inv_1 A VGND VNB VPB VPWR Y
.ends

* Black-box entry subcircuit for sky130_fd_sc_hd__dfrtp_4 abstract view
.subckt sky130_fd_sc_hd__dfrtp_4 CLK D RESET_B VGND VNB VPB VPWR Q
.ends

* Black-box entry subcircuit for sky130_fd_sc_hd__buf_2 abstract view
.subckt sky130_fd_sc_hd__buf_2 A VGND VNB VPB VPWR X
.ends

* Black-box entry subcircuit for sky130_fd_sc_hd__ebufn_1 abstract view
.subckt sky130_fd_sc_hd__ebufn_1 A TE_B VGND VNB VPB VPWR Z
.ends

* Black-box entry subcircuit for sky130_fd_sc_hd__dlymetal6s2s_1 abstract view
.subckt sky130_fd_sc_hd__dlymetal6s2s_1 A VGND VNB VPB VPWR X
.ends

* Black-box entry subcircuit for sky130_fd_sc_hd__or2b_1 abstract view
.subckt sky130_fd_sc_hd__or2b_1 A B_N VGND VNB VPB VPWR X
.ends

* Black-box entry subcircuit for sky130_fd_sc_hd__clkbuf_16 abstract view
.subckt sky130_fd_sc_hd__clkbuf_16 A VGND VNB VPB VPWR X
.ends

.subckt bottom_tile VGND VPWR ccff_head ccff_head_1 ccff_tail ccff_tail_0 chanx_left_in[0]
+ chanx_left_in[10] chanx_left_in[11] chanx_left_in[12] chanx_left_in[13] chanx_left_in[14]
+ chanx_left_in[15] chanx_left_in[16] chanx_left_in[17] chanx_left_in[18] chanx_left_in[19]
+ chanx_left_in[1] chanx_left_in[20] chanx_left_in[21] chanx_left_in[22] chanx_left_in[23]
+ chanx_left_in[24] chanx_left_in[25] chanx_left_in[26] chanx_left_in[27] chanx_left_in[28]
+ chanx_left_in[29] chanx_left_in[2] chanx_left_in[3] chanx_left_in[4] chanx_left_in[5]
+ chanx_left_in[6] chanx_left_in[7] chanx_left_in[8] chanx_left_in[9] chanx_left_out[0]
+ chanx_left_out[10] chanx_left_out[11] chanx_left_out[12] chanx_left_out[13] chanx_left_out[14]
+ chanx_left_out[15] chanx_left_out[16] chanx_left_out[17] chanx_left_out[18] chanx_left_out[19]
+ chanx_left_out[1] chanx_left_out[20] chanx_left_out[21] chanx_left_out[22] chanx_left_out[23]
+ chanx_left_out[24] chanx_left_out[25] chanx_left_out[26] chanx_left_out[27] chanx_left_out[28]
+ chanx_left_out[29] chanx_left_out[2] chanx_left_out[3] chanx_left_out[4] chanx_left_out[5]
+ chanx_left_out[6] chanx_left_out[7] chanx_left_out[8] chanx_left_out[9] chanx_right_in_0[0]
+ chanx_right_in_0[10] chanx_right_in_0[11] chanx_right_in_0[12] chanx_right_in_0[13]
+ chanx_right_in_0[14] chanx_right_in_0[15] chanx_right_in_0[16] chanx_right_in_0[17]
+ chanx_right_in_0[18] chanx_right_in_0[19] chanx_right_in_0[1] chanx_right_in_0[20]
+ chanx_right_in_0[21] chanx_right_in_0[22] chanx_right_in_0[23] chanx_right_in_0[24]
+ chanx_right_in_0[25] chanx_right_in_0[26] chanx_right_in_0[27] chanx_right_in_0[28]
+ chanx_right_in_0[29] chanx_right_in_0[2] chanx_right_in_0[3] chanx_right_in_0[4]
+ chanx_right_in_0[5] chanx_right_in_0[6] chanx_right_in_0[7] chanx_right_in_0[8]
+ chanx_right_in_0[9] chanx_right_out_0[0] chanx_right_out_0[10] chanx_right_out_0[11]
+ chanx_right_out_0[12] chanx_right_out_0[13] chanx_right_out_0[14] chanx_right_out_0[15]
+ chanx_right_out_0[16] chanx_right_out_0[17] chanx_right_out_0[18] chanx_right_out_0[19]
+ chanx_right_out_0[1] chanx_right_out_0[20] chanx_right_out_0[21] chanx_right_out_0[22]
+ chanx_right_out_0[23] chanx_right_out_0[24] chanx_right_out_0[25] chanx_right_out_0[26]
+ chanx_right_out_0[27] chanx_right_out_0[28] chanx_right_out_0[29] chanx_right_out_0[2]
+ chanx_right_out_0[3] chanx_right_out_0[4] chanx_right_out_0[5] chanx_right_out_0[6]
+ chanx_right_out_0[7] chanx_right_out_0[8] chanx_right_out_0[9] chany_top_in[0] chany_top_in[10]
+ chany_top_in[11] chany_top_in[12] chany_top_in[13] chany_top_in[14] chany_top_in[15]
+ chany_top_in[16] chany_top_in[17] chany_top_in[18] chany_top_in[19] chany_top_in[1]
+ chany_top_in[20] chany_top_in[21] chany_top_in[22] chany_top_in[23] chany_top_in[24]
+ chany_top_in[25] chany_top_in[26] chany_top_in[27] chany_top_in[28] chany_top_in[29]
+ chany_top_in[2] chany_top_in[3] chany_top_in[4] chany_top_in[5] chany_top_in[6]
+ chany_top_in[7] chany_top_in[8] chany_top_in[9] chany_top_out[0] chany_top_out[10]
+ chany_top_out[11] chany_top_out[12] chany_top_out[13] chany_top_out[14] chany_top_out[15]
+ chany_top_out[16] chany_top_out[17] chany_top_out[18] chany_top_out[19] chany_top_out[1]
+ chany_top_out[20] chany_top_out[21] chany_top_out[22] chany_top_out[23] chany_top_out[24]
+ chany_top_out[25] chany_top_out[26] chany_top_out[27] chany_top_out[28] chany_top_out[29]
+ chany_top_out[2] chany_top_out[3] chany_top_out[4] chany_top_out[5] chany_top_out[6]
+ chany_top_out[7] chany_top_out[8] chany_top_out[9] gfpga_pad_io_soc_dir[0] gfpga_pad_io_soc_dir[1]
+ gfpga_pad_io_soc_dir[2] gfpga_pad_io_soc_dir[3] gfpga_pad_io_soc_in[0] gfpga_pad_io_soc_in[1]
+ gfpga_pad_io_soc_in[2] gfpga_pad_io_soc_in[3] gfpga_pad_io_soc_out[0] gfpga_pad_io_soc_out[1]
+ gfpga_pad_io_soc_out[2] gfpga_pad_io_soc_out[3] isol_n prog_clk prog_reset_top_in
+ reset_top_in right_bottom_grid_top_width_0_height_0_subtile_0__pin_inpad_0_ right_bottom_grid_top_width_0_height_0_subtile_1__pin_inpad_0_
+ right_bottom_grid_top_width_0_height_0_subtile_2__pin_inpad_0_ right_bottom_grid_top_width_0_height_0_subtile_3__pin_inpad_0_
+ test_enable_top_in top_left_grid_right_width_0_height_0_subtile_0__pin_O_10_ top_left_grid_right_width_0_height_0_subtile_0__pin_O_11_
+ top_left_grid_right_width_0_height_0_subtile_0__pin_O_12_ top_left_grid_right_width_0_height_0_subtile_0__pin_O_13_
+ top_left_grid_right_width_0_height_0_subtile_0__pin_O_14_ top_left_grid_right_width_0_height_0_subtile_0__pin_O_15_
+ top_left_grid_right_width_0_height_0_subtile_0__pin_O_8_ top_left_grid_right_width_0_height_0_subtile_0__pin_O_9_
+ top_width_0_height_0_subtile_0__pin_inpad_0_ top_width_0_height_0_subtile_1__pin_inpad_0_
+ top_width_0_height_0_subtile_2__pin_inpad_0_ top_width_0_height_0_subtile_3__pin_inpad_0_
XFILLER_39_222 VGND VGND VPWR VPWR sky130_fd_sc_hd__fill_2
XTAP_177 VGND VPWR sky130_fd_sc_hd__tapvpwrvgnd_1
XTAP_188 VGND VPWR sky130_fd_sc_hd__tapvpwrvgnd_1
XTAP_199 VGND VPWR sky130_fd_sc_hd__tapvpwrvgnd_1
XANTENNA_sb_1__0_.mux_right_track_28.mux_l1_in_2__A1 net9 VGND VGND VPWR VPWR sky130_fd_sc_hd__diode_2
XFILLER_2_505 VGND VGND VPWR VPWR sky130_fd_sc_hd__decap_4
XFILLER_26_85 VGND VGND VPWR VPWR sky130_fd_sc_hd__decap_8
XFILLER_26_41 VGND VGND VPWR VPWR sky130_ef_sc_hd__decap_12
Xsb_1__0_.mem_right_track_12.sky130_fd_sc_hd__dfrtp_1_1_ clknet_4_9_0_prog_clk sb_1__0_.mem_right_track_12.mem_out\[0\]
+ net98 VGND VGND VPWR VPWR sb_1__0_.mem_right_track_12.mem_out\[1\] sky130_fd_sc_hd__dfrtp_1
XFILLER_13_111 VGND VGND VPWR VPWR sky130_fd_sc_hd__fill_1
XANTENNA_input92_A chany_top_in[9] VGND VGND VPWR VPWR sky130_fd_sc_hd__diode_2
Xcbx_1__0_.grid_io_bottom_bottom_8__0_.logical_tile_io_mode_io__0.logical_tile_io_mode_physical__iopad_0.io_0_.IN_PROTECT_GATE
+ net96 cbx_1__0_.grid_io_bottom_bottom_8__0_.logical_tile_io_mode_io__0.logical_tile_io_mode_physical__iopad_0.io_0_.SOC_DIR_N
+ VGND VGND VPWR VPWR top_width_0_height_0_subtile_0__pin_inpad_0_ sky130_fd_sc_hd__ebufn_8
XFILLER_9_137 VGND VGND VPWR VPWR sky130_ef_sc_hd__decap_12
XFILLER_3_23 VGND VGND VPWR VPWR sky130_ef_sc_hd__decap_12
XFILLER_17_461 VGND VGND VPWR VPWR sky130_ef_sc_hd__decap_12
Xsb_1__0_.mux_top_track_42.mux_l2_in_0__246 VGND VGND VPWR VPWR net246 sb_1__0_.mux_top_track_42.mux_l2_in_0__246/LO
+ sky130_fd_sc_hd__conb_1
Xsb_1__0_.mux_left_track_29.mux_l1_in_1_ net39 net86 sb_1__0_.mem_left_track_29.mem_out\[0\]
+ VGND VGND VPWR VPWR sb_1__0_.mux_left_track_29.sky130_fd_sc_hd__mux2_1_1_X sky130_fd_sc_hd__mux2_1
XFILLER_27_225 VGND VGND VPWR VPWR sky130_fd_sc_hd__decap_3
XFILLER_23_497 VGND VGND VPWR VPWR sky130_fd_sc_hd__decap_6
XFILLER_2_357 VGND VGND VPWR VPWR sky130_fd_sc_hd__decap_6
XFILLER_12_65 VGND VGND VPWR VPWR sky130_ef_sc_hd__decap_12
Xsb_1__0_.mux_right_track_0.mux_l1_in_0_ net91 net73 sb_1__0_.mem_right_track_0.mem_out\[0\]
+ VGND VGND VPWR VPWR sb_1__0_.mux_right_track_0.sky130_fd_sc_hd__mux2_1_0_X sky130_fd_sc_hd__mux2_1
Xsb_1__0_.mem_right_track_44.sky130_fd_sc_hd__dfrtp_1_0_ clknet_4_10_0_prog_clk sb_1__0_.mem_right_track_36.ccff_tail
+ net98 VGND VGND VPWR VPWR sb_1__0_.mem_right_track_44.mem_out\[0\] sky130_fd_sc_hd__dfrtp_1
Xsb_1__0_.mux_top_track_4.mux_l2_in_1_ net244 net17 sb_1__0_.mem_top_track_4.mem_out\[1\]
+ VGND VGND VPWR VPWR sb_1__0_.mux_top_track_4.sky130_fd_sc_hd__mux2_1_3_X sky130_fd_sc_hd__mux2_1
Xsb_1__0_.mem_top_track_14.sky130_fd_sc_hd__dfrtp_1_1_ clknet_4_14_0_prog_clk sb_1__0_.mem_top_track_14.mem_out\[0\]
+ net98 VGND VGND VPWR VPWR sb_1__0_.mem_top_track_14.mem_out\[1\] sky130_fd_sc_hd__dfrtp_1
XFILLER_14_431 VGND VGND VPWR VPWR sky130_ef_sc_hd__decap_12
XANTENNA__124__A net46 VGND VGND VPWR VPWR sky130_fd_sc_hd__diode_2
Xcbx_1__0_.cbx_8__0_.mux_top_ipin_1.mux_l2_in_3_ net255 net58 cbx_1__0_.cbx_8__0_.mem_top_ipin_1.mem_out\[1\]
+ VGND VGND VPWR VPWR cbx_1__0_.cbx_8__0_.mux_top_ipin_1.sky130_fd_sc_hd__mux2_1_8_X
+ sky130_fd_sc_hd__mux2_1
XFILLER_24_217 VGND VGND VPWR VPWR sky130_fd_sc_hd__fill_1
Xsb_1__0_.mux_left_track_53.mux_l2_in_1__215 VGND VGND VPWR VPWR net215 sb_1__0_.mux_left_track_53.mux_l2_in_1__215/LO
+ sky130_fd_sc_hd__conb_1
XFILLER_32_250 VGND VGND VPWR VPWR sky130_fd_sc_hd__fill_2
XFILLER_20_489 VGND VGND VPWR VPWR sky130_ef_sc_hd__decap_12
XFILLER_28_501 VGND VGND VPWR VPWR sky130_ef_sc_hd__decap_12
XANTENNA_sb_1__0_.mux_top_track_14.mux_l2_in_1__A1 net9 VGND VGND VPWR VPWR sky130_fd_sc_hd__diode_2
Xsb_1__0_.mem_top_track_6.sky130_fd_sc_hd__dfrtp_1_0_ clknet_4_13_0_prog_clk sb_1__0_.mem_top_track_4.ccff_tail
+ net98 VGND VGND VPWR VPWR sb_1__0_.mem_top_track_6.mem_out\[0\] sky130_fd_sc_hd__dfrtp_2
X_200_ cbx_1__0_.grid_io_bottom_bottom_8__0_.logical_tile_io_mode_io__1.gfpga_pad_io_soc_out
+ VGND VGND VPWR VPWR net209 sky130_fd_sc_hd__clkbuf_1
X_131_ sb_1__0_.mux_left_track_5.out VGND VGND VPWR VPWR net132 sky130_fd_sc_hd__clkbuf_2
XFILLER_23_53 VGND VGND VPWR VPWR sky130_fd_sc_hd__decap_3
Xsb_1__0_.mem_left_track_11.sky130_fd_sc_hd__dfrtp_1_0_ clknet_4_5_0_prog_clk sb_1__0_.mem_left_track_11.ccff_head
+ net98 VGND VGND VPWR VPWR sb_1__0_.mem_left_track_11.mem_out\[0\] sky130_fd_sc_hd__dfrtp_2
XFILLER_7_427 VGND VGND VPWR VPWR sky130_ef_sc_hd__decap_12
XFILLER_7_449 VGND VGND VPWR VPWR sky130_ef_sc_hd__decap_12
XFILLER_11_445 VGND VGND VPWR VPWR sky130_fd_sc_hd__decap_3
XFILLER_38_309 VGND VGND VPWR VPWR sky130_fd_sc_hd__fill_2
Xsb_1__0_.mem_top_track_46.sky130_fd_sc_hd__dfrtp_1_0_ clknet_4_4_0_prog_clk sb_1__0_.mem_top_track_44.ccff_tail
+ net98 VGND VGND VPWR VPWR sb_1__0_.mem_top_track_46.mem_out\[0\] sky130_fd_sc_hd__dfrtp_1
XANTENNA_input55_A chanx_right_in_0[2] VGND VGND VPWR VPWR sky130_fd_sc_hd__diode_2
XFILLER_2_165 VGND VGND VPWR VPWR sky130_fd_sc_hd__fill_1
XFILLER_2_121 VGND VGND VPWR VPWR sky130_ef_sc_hd__decap_12
XFILLER_0_24 VGND VGND VPWR VPWR sky130_fd_sc_hd__fill_2
XFILLER_0_57 VGND VGND VPWR VPWR sky130_ef_sc_hd__decap_12
XFILLER_17_9 VGND VGND VPWR VPWR sky130_fd_sc_hd__decap_4
XFILLER_9_55 VGND VGND VPWR VPWR sky130_fd_sc_hd__fill_1
Xsb_1__0_.mux_top_track_28.mux_l1_in_0_ net29 net59 sb_1__0_.mem_top_track_28.mem_out\[0\]
+ VGND VGND VPWR VPWR sb_1__0_.mux_top_track_28.sky130_fd_sc_hd__mux2_1_0_X sky130_fd_sc_hd__mux2_1
XANTENNA_sb_1__0_.mux_top_track_32.mux_l1_in_0__A0 net26 VGND VGND VPWR VPWR sky130_fd_sc_hd__diode_2
XFILLER_20_253 VGND VGND VPWR VPWR sky130_fd_sc_hd__fill_1
XFILLER_4_408 VGND VGND VPWR VPWR sky130_ef_sc_hd__decap_12
Xsb_1__0_.mux_top_track_30.mux_l1_in_0_ net28 net58 sb_1__0_.mem_top_track_30.mem_out\[0\]
+ VGND VGND VPWR VPWR sb_1__0_.mux_top_track_30.sky130_fd_sc_hd__mux2_1_0_X sky130_fd_sc_hd__mux2_1
XFILLER_28_397 VGND VGND VPWR VPWR sky130_fd_sc_hd__decap_4
XFILLER_28_375 VGND VGND VPWR VPWR sky130_fd_sc_hd__fill_2
XFILLER_28_353 VGND VGND VPWR VPWR sky130_fd_sc_hd__fill_2
XFILLER_18_53 VGND VGND VPWR VPWR sky130_ef_sc_hd__decap_12
XFILLER_34_85 VGND VGND VPWR VPWR sky130_fd_sc_hd__decap_3
XFILLER_11_275 VGND VGND VPWR VPWR sky130_fd_sc_hd__decap_4
Xcbx_1__0_.cbx_8__0_.mux_top_ipin_1.mux_l1_in_4_ net35 net4 cbx_1__0_.cbx_8__0_.mem_top_ipin_1.mem_out\[0\]
+ VGND VGND VPWR VPWR cbx_1__0_.cbx_8__0_.mux_top_ipin_1.sky130_fd_sc_hd__mux2_1_4_X
+ sky130_fd_sc_hd__mux2_1
X_114_ net35 VGND VGND VPWR VPWR net114 sky130_fd_sc_hd__clkbuf_2
XFILLER_3_441 VGND VGND VPWR VPWR sky130_fd_sc_hd__decap_6
XFILLER_7_279 VGND VGND VPWR VPWR sky130_fd_sc_hd__fill_1
Xsb_1__0_.mux_top_track_42.mux_l2_in_0_ net246 sb_1__0_.mux_top_track_42.sky130_fd_sc_hd__mux2_1_0_X
+ sb_1__0_.mem_top_track_42.ccff_tail VGND VGND VPWR VPWR sb_1__0_.mux_top_track_42.sky130_fd_sc_hd__mux2_1_1_X
+ sky130_fd_sc_hd__mux2_1
XANTENNA_cbx_1__0_.cbx_8__0_.mux_top_ipin_3.mux_l1_in_3__A0 net39 VGND VGND VPWR VPWR
+ sky130_fd_sc_hd__diode_2
XFILLER_3_485 VGND VGND VPWR VPWR sky130_fd_sc_hd__fill_1
XANTENNA_sb_1__0_.mux_top_track_24.mux_l1_in_0__A1 net107 VGND VGND VPWR VPWR sky130_fd_sc_hd__diode_2
XFILLER_40_337 VGND VGND VPWR VPWR sky130_fd_sc_hd__fill_2
XFILLER_25_367 VGND VGND VPWR VPWR sky130_fd_sc_hd__fill_2
Xsb_1__0_.mem_right_track_2.sky130_fd_sc_hd__dfrtp_1_1_ clknet_4_12_0_prog_clk sb_1__0_.mem_right_track_2.mem_out\[0\]
+ net98 VGND VGND VPWR VPWR sb_1__0_.mem_right_track_2.mem_out\[1\] sky130_fd_sc_hd__dfrtp_1
XFILLER_20_65 VGND VGND VPWR VPWR sky130_ef_sc_hd__decap_12
XFILLER_20_21 VGND VGND VPWR VPWR sky130_fd_sc_hd__decap_6
XFILLER_4_249 VGND VGND VPWR VPWR sky130_fd_sc_hd__decap_3
Xcbx_1__0_.cbx_8__0_.mux_top_ipin_1.mux_l4_in_0_ cbx_1__0_.cbx_8__0_.mux_top_ipin_1.sky130_fd_sc_hd__mux2_1_10_X
+ cbx_1__0_.cbx_8__0_.mux_top_ipin_1.sky130_fd_sc_hd__mux2_1_9_X cbx_1__0_.cbx_8__0_.mem_top_ipin_1.ccff_tail
+ VGND VGND VPWR VPWR cbx_1__0_.cbx_8__0_.mux_top_ipin_1.sky130_fd_sc_hd__mux2_1_11_X
+ sky130_fd_sc_hd__mux2_1
XFILLER_0_477 VGND VGND VPWR VPWR sky130_fd_sc_hd__decap_8
XFILLER_28_194 VGND VGND VPWR VPWR sky130_fd_sc_hd__fill_2
XANTENNA_input18_A chanx_left_in[23] VGND VGND VPWR VPWR sky130_fd_sc_hd__diode_2
XFILLER_16_367 VGND VGND VPWR VPWR sky130_fd_sc_hd__decap_8
XFILLER_31_348 VGND VGND VPWR VPWR sky130_fd_sc_hd__decap_4
XFILLER_31_337 VGND VGND VPWR VPWR sky130_fd_sc_hd__fill_2
XFILLER_6_23 VGND VGND VPWR VPWR sky130_fd_sc_hd__decap_4
XTAP_348 VGND VPWR sky130_fd_sc_hd__tapvpwrvgnd_1
XTAP_337 VGND VPWR sky130_fd_sc_hd__tapvpwrvgnd_1
XTAP_326 VGND VPWR sky130_fd_sc_hd__tapvpwrvgnd_1
XTAP_315 VGND VPWR sky130_fd_sc_hd__tapvpwrvgnd_1
XTAP_304 VGND VPWR sky130_fd_sc_hd__tapvpwrvgnd_1
XFILLER_39_426 VGND VGND VPWR VPWR sky130_fd_sc_hd__decap_4
XFILLER_39_404 VGND VGND VPWR VPWR sky130_fd_sc_hd__fill_2
XTAP_359 VGND VPWR sky130_fd_sc_hd__tapvpwrvgnd_1
XFILLER_19_150 VGND VGND VPWR VPWR sky130_fd_sc_hd__decap_3
XFILLER_13_3 VGND VGND VPWR VPWR sky130_fd_sc_hd__fill_2
XFILLER_34_120 VGND VGND VPWR VPWR sky130_fd_sc_hd__fill_2
XFILLER_22_359 VGND VGND VPWR VPWR sky130_fd_sc_hd__decap_3
XFILLER_1_208 VGND VGND VPWR VPWR sky130_fd_sc_hd__decap_4
XANTENNA_cbx_1__0_.cbx_8__0_.mem_top_ipin_2.sky130_fd_sc_hd__dfrtp_1_0__RESET_B net98
+ VGND VGND VPWR VPWR sky130_fd_sc_hd__diode_2
XFILLER_25_175 VGND VGND VPWR VPWR sky130_fd_sc_hd__fill_2
XFILLER_25_153 VGND VGND VPWR VPWR sky130_fd_sc_hd__fill_2
XFILLER_25_186 VGND VGND VPWR VPWR sky130_fd_sc_hd__decap_6
XFILLER_13_337 VGND VGND VPWR VPWR sky130_fd_sc_hd__fill_1
XANTENNA_cbx_1__0_.cbx_8__0_.mux_top_ipin_3.mux_l2_in_2__A0 net25 VGND VGND VPWR VPWR
+ sky130_fd_sc_hd__diode_2
XFILLER_5_525 VGND VGND VPWR VPWR sky130_fd_sc_hd__fill_2
XFILLER_16_153 VGND VGND VPWR VPWR sky130_fd_sc_hd__decap_4
XFILLER_8_363 VGND VGND VPWR VPWR sky130_fd_sc_hd__fill_1
XFILLER_39_212 VGND VGND VPWR VPWR sky130_fd_sc_hd__fill_2
XTAP_123 VGND VPWR sky130_fd_sc_hd__tapvpwrvgnd_1
XTAP_112 VGND VPWR sky130_fd_sc_hd__tapvpwrvgnd_1
XTAP_101 VGND VPWR sky130_fd_sc_hd__tapvpwrvgnd_1
XTAP_134 VGND VPWR sky130_fd_sc_hd__tapvpwrvgnd_1
XTAP_145 VGND VPWR sky130_fd_sc_hd__tapvpwrvgnd_1
XTAP_156 VGND VPWR sky130_fd_sc_hd__tapvpwrvgnd_1
XTAP_167 VGND VPWR sky130_fd_sc_hd__tapvpwrvgnd_1
XTAP_178 VGND VPWR sky130_fd_sc_hd__tapvpwrvgnd_1
XTAP_189 VGND VPWR sky130_fd_sc_hd__tapvpwrvgnd_1
XFILLER_39_278 VGND VGND VPWR VPWR sky130_fd_sc_hd__fill_2
XFILLER_39_256 VGND VGND VPWR VPWR sky130_fd_sc_hd__fill_2
XFILLER_22_112 VGND VGND VPWR VPWR sky130_fd_sc_hd__decap_4
XFILLER_10_307 VGND VGND VPWR VPWR sky130_fd_sc_hd__fill_1
Xcbx_1__0_.cbx_8__0_.mux_top_ipin_1.mux_l3_in_1_ cbx_1__0_.cbx_8__0_.mux_top_ipin_1.sky130_fd_sc_hd__mux2_1_8_X
+ cbx_1__0_.cbx_8__0_.mux_top_ipin_1.sky130_fd_sc_hd__mux2_1_7_X cbx_1__0_.cbx_8__0_.mem_top_ipin_1.mem_out\[2\]
+ VGND VGND VPWR VPWR cbx_1__0_.cbx_8__0_.mux_top_ipin_1.sky130_fd_sc_hd__mux2_1_10_X
+ sky130_fd_sc_hd__mux2_1
XFILLER_26_440 VGND VGND VPWR VPWR sky130_ef_sc_hd__decap_12
XFILLER_26_53 VGND VGND VPWR VPWR sky130_ef_sc_hd__decap_12
XFILLER_9_105 VGND VGND VPWR VPWR sky130_fd_sc_hd__decap_6
XANTENNA_sb_1__0_.mux_right_track_36.mux_l2_in_1__A1 net8 VGND VGND VPWR VPWR sky130_fd_sc_hd__diode_2
XFILLER_13_156 VGND VGND VPWR VPWR sky130_fd_sc_hd__fill_2
Xsb_1__0_.mem_right_track_12.sky130_fd_sc_hd__dfrtp_1_0_ clknet_4_11_0_prog_clk sb_1__0_.mem_right_track_10.ccff_tail
+ net98 VGND VGND VPWR VPWR sb_1__0_.mem_right_track_12.mem_out\[0\] sky130_fd_sc_hd__dfrtp_2
XANTENNA_input85_A chany_top_in[2] VGND VGND VPWR VPWR sky130_fd_sc_hd__diode_2
XANTENNA_sb_1__0_.mem_left_track_3.sky130_fd_sc_hd__dfrtp_1_1__RESET_B net98 VGND
+ VGND VPWR VPWR sky130_fd_sc_hd__diode_2
XFILLER_9_149 VGND VGND VPWR VPWR sky130_ef_sc_hd__decap_12
XFILLER_3_57 VGND VGND VPWR VPWR sky130_ef_sc_hd__decap_12
XFILLER_3_35 VGND VGND VPWR VPWR sky130_ef_sc_hd__decap_12
XFILLER_36_215 VGND VGND VPWR VPWR sky130_fd_sc_hd__fill_2
XFILLER_17_473 VGND VGND VPWR VPWR sky130_fd_sc_hd__decap_4
XFILLER_32_432 VGND VGND VPWR VPWR sky130_fd_sc_hd__fill_2
XFILLER_32_421 VGND VGND VPWR VPWR sky130_fd_sc_hd__fill_2
Xsb_1__0_.mux_left_track_29.mux_l1_in_0_ net68 net80 sb_1__0_.mem_left_track_29.mem_out\[0\]
+ VGND VGND VPWR VPWR sb_1__0_.mux_left_track_29.sky130_fd_sc_hd__mux2_1_0_X sky130_fd_sc_hd__mux2_1
XFILLER_35_292 VGND VGND VPWR VPWR sky130_fd_sc_hd__decap_4
XFILLER_35_281 VGND VGND VPWR VPWR sky130_fd_sc_hd__fill_2
XFILLER_12_77 VGND VGND VPWR VPWR sky130_fd_sc_hd__decap_6
XANTENNA_sb_1__0_.mem_right_track_36.sky130_fd_sc_hd__dfrtp_1_2__RESET_B net98 VGND
+ VGND VPWR VPWR sky130_fd_sc_hd__diode_2
XFILLER_37_85 VGND VGND VPWR VPWR sky130_fd_sc_hd__decap_8
XFILLER_37_63 VGND VGND VPWR VPWR sky130_fd_sc_hd__decap_6
Xsb_1__0_.mem_top_track_14.sky130_fd_sc_hd__dfrtp_1_0_ clknet_4_15_0_prog_clk sb_1__0_.mem_top_track_12.ccff_tail
+ net98 VGND VGND VPWR VPWR sb_1__0_.mem_top_track_14.mem_out\[0\] sky130_fd_sc_hd__dfrtp_1
XFILLER_18_237 VGND VGND VPWR VPWR sky130_fd_sc_hd__decap_4
Xsb_1__0_.mux_top_track_4.mux_l2_in_0_ sb_1__0_.mux_top_track_4.sky130_fd_sc_hd__mux2_1_1_X
+ sb_1__0_.mux_top_track_4.sky130_fd_sc_hd__mux2_1_0_X sb_1__0_.mem_top_track_4.mem_out\[1\]
+ VGND VGND VPWR VPWR sb_1__0_.mux_top_track_4.sky130_fd_sc_hd__mux2_1_2_X sky130_fd_sc_hd__mux2_1
XFILLER_14_421 VGND VGND VPWR VPWR sky130_fd_sc_hd__fill_2
XFILLER_14_443 VGND VGND VPWR VPWR sky130_ef_sc_hd__decap_12
Xclkbuf_4_6_0_prog_clk clknet_0_prog_clk VGND VGND VPWR VPWR clknet_4_6_0_prog_clk
+ sky130_fd_sc_hd__clkbuf_8
XFILLER_37_502 VGND VGND VPWR VPWR sky130_fd_sc_hd__fill_2
XFILLER_1_391 VGND VGND VPWR VPWR sky130_fd_sc_hd__fill_1
XANTENNA__140__A net30 VGND VGND VPWR VPWR sky130_fd_sc_hd__diode_2
Xcbx_1__0_.cbx_8__0_.mux_top_ipin_1.mux_l2_in_2_ net27 cbx_1__0_.cbx_8__0_.mux_top_ipin_1.sky130_fd_sc_hd__mux2_1_4_X
+ cbx_1__0_.cbx_8__0_.mem_top_ipin_1.mem_out\[1\] VGND VGND VPWR VPWR cbx_1__0_.cbx_8__0_.mux_top_ipin_1.sky130_fd_sc_hd__mux2_1_7_X
+ sky130_fd_sc_hd__mux2_1
XFILLER_17_292 VGND VGND VPWR VPWR sky130_fd_sc_hd__decap_4
XFILLER_17_281 VGND VGND VPWR VPWR sky130_fd_sc_hd__fill_2
Xsb_1__0_.mux_top_track_24.mux_l1_in_1__237 VGND VGND VPWR VPWR net237 sb_1__0_.mux_top_track_24.mux_l1_in_1__237/LO
+ sky130_fd_sc_hd__conb_1
Xsb_1__0_.mux_top_track_8.sky130_fd_sc_hd__buf_4_0_ sb_1__0_.mux_top_track_8.sky130_fd_sc_hd__mux2_1_5_X
+ VGND VGND VPWR VPWR sb_1__0_.mux_top_track_8.out sky130_fd_sc_hd__clkbuf_1
XFILLER_9_491 VGND VGND VPWR VPWR sky130_ef_sc_hd__decap_12
Xoutput210 net210 VGND VGND VPWR VPWR gfpga_pad_io_soc_out[3] sky130_fd_sc_hd__buf_12
XFILLER_28_513 VGND VGND VPWR VPWR sky130_fd_sc_hd__fill_2
X_130_ sb_1__0_.mux_left_track_7.out VGND VGND VPWR VPWR net131 sky130_fd_sc_hd__clkbuf_1
XFILLER_23_21 VGND VGND VPWR VPWR sky130_ef_sc_hd__decap_12
XFILLER_7_439 VGND VGND VPWR VPWR sky130_fd_sc_hd__decap_8
XANTENNA_input48_A chanx_right_in_0[23] VGND VGND VPWR VPWR sky130_fd_sc_hd__diode_2
XFILLER_19_502 VGND VGND VPWR VPWR sky130_fd_sc_hd__fill_2
XFILLER_2_133 VGND VGND VPWR VPWR sky130_fd_sc_hd__decap_6
XFILLER_0_69 VGND VGND VPWR VPWR sky130_ef_sc_hd__decap_12
XANTENNA__135__A net25 VGND VGND VPWR VPWR sky130_fd_sc_hd__diode_2
XFILLER_14_251 VGND VGND VPWR VPWR sky130_fd_sc_hd__fill_1
XFILLER_6_461 VGND VGND VPWR VPWR sky130_fd_sc_hd__fill_1
XANTENNA_sb_1__0_.mux_top_track_32.mux_l1_in_0__A1 net56 VGND VGND VPWR VPWR sky130_fd_sc_hd__diode_2
XFILLER_25_505 VGND VGND VPWR VPWR sky130_ef_sc_hd__decap_12
Xsb_1__0_.mux_top_track_4.mux_l1_in_1_ net47 net50 sb_1__0_.mem_top_track_4.mem_out\[0\]
+ VGND VGND VPWR VPWR sb_1__0_.mux_top_track_4.sky130_fd_sc_hd__mux2_1_1_X sky130_fd_sc_hd__mux2_1
XFILLER_28_365 VGND VGND VPWR VPWR sky130_fd_sc_hd__fill_2
XFILLER_18_65 VGND VGND VPWR VPWR sky130_ef_sc_hd__decap_12
XANTENNA_input102_A right_bottom_grid_top_width_0_height_0_subtile_3__pin_inpad_0_
+ VGND VGND VPWR VPWR sky130_fd_sc_hd__diode_2
XFILLER_31_519 VGND VGND VPWR VPWR sky130_fd_sc_hd__fill_2
X_113_ net34 VGND VGND VPWR VPWR net142 sky130_fd_sc_hd__clkbuf_2
Xcbx_1__0_.cbx_8__0_.mux_top_ipin_1.mux_l1_in_3_ net41 net10 cbx_1__0_.cbx_8__0_.mem_top_ipin_1.mem_out\[0\]
+ VGND VGND VPWR VPWR cbx_1__0_.cbx_8__0_.mux_top_ipin_1.sky130_fd_sc_hd__mux2_1_3_X
+ sky130_fd_sc_hd__mux2_1
XFILLER_7_225 VGND VGND VPWR VPWR sky130_ef_sc_hd__decap_12
XFILLER_38_118 VGND VGND VPWR VPWR sky130_fd_sc_hd__decap_4
XANTENNA_cbx_1__0_.cbx_8__0_.mux_top_ipin_3.mux_l1_in_3__A1 net8 VGND VGND VPWR VPWR
+ sky130_fd_sc_hd__diode_2
XFILLER_22_519 VGND VGND VPWR VPWR sky130_fd_sc_hd__fill_2
Xcbx_1__0_.cbx_8__0_.mux_top_ipin_2.sky130_fd_sc_hd__buf_4_0_ cbx_1__0_.cbx_8__0_.mux_top_ipin_2.sky130_fd_sc_hd__mux2_1_11_X
+ VGND VGND VPWR VPWR cbx_1__0_.bottom_grid_top_width_0_height_0_subtile_2__pin_outpad_0_
+ sky130_fd_sc_hd__clkbuf_1
XFILLER_37_195 VGND VGND VPWR VPWR sky130_fd_sc_hd__decap_4
XFILLER_25_335 VGND VGND VPWR VPWR sky130_fd_sc_hd__fill_1
XANTENNA_sb_1__0_.mem_right_track_28.sky130_fd_sc_hd__dfrtp_1_1__RESET_B net98 VGND
+ VGND VPWR VPWR sky130_fd_sc_hd__diode_2
XFILLER_40_349 VGND VGND VPWR VPWR sky130_fd_sc_hd__decap_4
Xsb_1__0_.mem_right_track_2.sky130_fd_sc_hd__dfrtp_1_0_ clknet_4_12_0_prog_clk sb_1__0_.mem_right_track_0.ccff_tail
+ net98 VGND VGND VPWR VPWR sb_1__0_.mem_right_track_2.mem_out\[0\] sky130_fd_sc_hd__dfrtp_2
XANTENNA_sb_1__0_.mux_right_track_10.mux_l1_in_2__A0 net13 VGND VGND VPWR VPWR sky130_fd_sc_hd__diode_2
XFILLER_20_77 VGND VGND VPWR VPWR sky130_fd_sc_hd__decap_6
XFILLER_29_97 VGND VGND VPWR VPWR sky130_fd_sc_hd__decap_4
XFILLER_29_75 VGND VGND VPWR VPWR sky130_ef_sc_hd__decap_12
Xsb_1__0_.mux_top_track_30.sky130_fd_sc_hd__buf_4_0_ sb_1__0_.mux_top_track_30.sky130_fd_sc_hd__mux2_1_1_X
+ VGND VGND VPWR VPWR sb_1__0_.mux_top_track_30.out sky130_fd_sc_hd__clkbuf_1
XFILLER_16_324 VGND VGND VPWR VPWR sky130_fd_sc_hd__fill_2
XFILLER_16_346 VGND VGND VPWR VPWR sky130_fd_sc_hd__decap_4
XTAP_349 VGND VPWR sky130_fd_sc_hd__tapvpwrvgnd_1
XTAP_338 VGND VPWR sky130_fd_sc_hd__tapvpwrvgnd_1
XTAP_327 VGND VPWR sky130_fd_sc_hd__tapvpwrvgnd_1
XTAP_316 VGND VPWR sky130_fd_sc_hd__tapvpwrvgnd_1
XTAP_305 VGND VPWR sky130_fd_sc_hd__tapvpwrvgnd_1
XFILLER_3_272 VGND VGND VPWR VPWR sky130_fd_sc_hd__decap_8
XFILLER_39_449 VGND VGND VPWR VPWR sky130_fd_sc_hd__fill_2
XFILLER_19_173 VGND VGND VPWR VPWR sky130_fd_sc_hd__fill_2
XFILLER_30_371 VGND VGND VPWR VPWR sky130_fd_sc_hd__decap_4
XFILLER_40_113 VGND VGND VPWR VPWR sky130_fd_sc_hd__fill_2
XFILLER_25_110 VGND VGND VPWR VPWR sky130_fd_sc_hd__fill_2
XFILLER_15_55 VGND VGND VPWR VPWR sky130_fd_sc_hd__fill_1
XFILLER_40_146 VGND VGND VPWR VPWR sky130_fd_sc_hd__decap_4
XFILLER_31_21 VGND VGND VPWR VPWR sky130_fd_sc_hd__decap_4
Xsb_1__0_.mux_top_track_42.mux_l1_in_0_ net27 net104 sb_1__0_.mem_top_track_42.mem_out\[0\]
+ VGND VGND VPWR VPWR sb_1__0_.mux_top_track_42.sky130_fd_sc_hd__mux2_1_0_X sky130_fd_sc_hd__mux2_1
XFILLER_21_393 VGND VGND VPWR VPWR sky130_fd_sc_hd__fill_2
Xinput110 top_left_grid_right_width_0_height_0_subtile_0__pin_O_9_ VGND VGND VPWR
+ VPWR net110 sky130_fd_sc_hd__clkbuf_2
XFILLER_0_253 VGND VGND VPWR VPWR sky130_fd_sc_hd__fill_2
XFILLER_36_419 VGND VGND VPWR VPWR sky130_fd_sc_hd__fill_1
XANTENNA_input30_A chanx_left_in[7] VGND VGND VPWR VPWR sky130_fd_sc_hd__diode_2
XFILLER_0_275 VGND VGND VPWR VPWR sky130_fd_sc_hd__decap_4
XFILLER_31_146 VGND VGND VPWR VPWR sky130_fd_sc_hd__fill_2
XFILLER_31_113 VGND VGND VPWR VPWR sky130_fd_sc_hd__fill_1
XANTENNA__143__A net4 VGND VGND VPWR VPWR sky130_fd_sc_hd__diode_2
XFILLER_27_408 VGND VGND VPWR VPWR sky130_fd_sc_hd__decap_3
XTAP_124 VGND VPWR sky130_fd_sc_hd__tapvpwrvgnd_1
XTAP_113 VGND VPWR sky130_fd_sc_hd__tapvpwrvgnd_1
XTAP_102 VGND VPWR sky130_fd_sc_hd__tapvpwrvgnd_1
XTAP_135 VGND VPWR sky130_fd_sc_hd__tapvpwrvgnd_1
XTAP_146 VGND VPWR sky130_fd_sc_hd__tapvpwrvgnd_1
XTAP_157 VGND VPWR sky130_fd_sc_hd__tapvpwrvgnd_1
XTAP_168 VGND VPWR sky130_fd_sc_hd__tapvpwrvgnd_1
XTAP_179 VGND VPWR sky130_fd_sc_hd__tapvpwrvgnd_1
XFILLER_35_441 VGND VGND VPWR VPWR sky130_fd_sc_hd__fill_2
Xcbx_1__0_.cbx_8__0_.mux_top_ipin_1.mux_l3_in_0_ cbx_1__0_.cbx_8__0_.mux_top_ipin_1.sky130_fd_sc_hd__mux2_1_6_X
+ cbx_1__0_.cbx_8__0_.mux_top_ipin_1.sky130_fd_sc_hd__mux2_1_5_X cbx_1__0_.cbx_8__0_.mem_top_ipin_1.mem_out\[2\]
+ VGND VGND VPWR VPWR cbx_1__0_.cbx_8__0_.mux_top_ipin_1.sky130_fd_sc_hd__mux2_1_9_X
+ sky130_fd_sc_hd__mux2_1
Xsb_1__0_.mux_top_track_24.sky130_fd_sc_hd__buf_4_0_ sb_1__0_.mux_top_track_24.sky130_fd_sc_hd__mux2_1_2_X
+ VGND VGND VPWR VPWR sb_1__0_.mux_top_track_24.out sky130_fd_sc_hd__clkbuf_1
XANTENNA_sb_1__0_.mem_top_track_58.sky130_fd_sc_hd__dfrtp_1_0__RESET_B net98 VGND
+ VGND VPWR VPWR sky130_fd_sc_hd__diode_2
XANTENNA_cbx_1__0_.cbx_8__0_.mem_top_ipin_0.sky130_fd_sc_hd__dfrtp_1_1__RESET_B net98
+ VGND VGND VPWR VPWR sky130_fd_sc_hd__diode_2
XFILLER_7_9 VGND VGND VPWR VPWR sky130_fd_sc_hd__fill_2
XFILLER_26_21 VGND VGND VPWR VPWR sky130_fd_sc_hd__decap_6
XFILLER_26_452 VGND VGND VPWR VPWR sky130_ef_sc_hd__decap_12
XFILLER_26_98 VGND VGND VPWR VPWR sky130_fd_sc_hd__fill_2
XFILLER_26_65 VGND VGND VPWR VPWR sky130_fd_sc_hd__decap_6
XFILLER_13_113 VGND VGND VPWR VPWR sky130_fd_sc_hd__decap_6
XANTENNA_input78_A chany_top_in[23] VGND VGND VPWR VPWR sky130_fd_sc_hd__diode_2
Xsb_1__0_.mux_left_track_29.mux_l2_in_1__262 VGND VGND VPWR VPWR net262 sb_1__0_.mux_left_track_29.mux_l2_in_1__262/LO
+ sky130_fd_sc_hd__conb_1
XFILLER_3_69 VGND VGND VPWR VPWR sky130_ef_sc_hd__decap_12
XFILLER_3_47 VGND VGND VPWR VPWR sky130_fd_sc_hd__decap_8
XFILLER_17_441 VGND VGND VPWR VPWR sky130_fd_sc_hd__decap_6
XANTENNA__138__A net28 VGND VGND VPWR VPWR sky130_fd_sc_hd__diode_2
XFILLER_32_477 VGND VGND VPWR VPWR sky130_ef_sc_hd__decap_12
XFILLER_12_190 VGND VGND VPWR VPWR sky130_fd_sc_hd__fill_1
XFILLER_8_183 VGND VGND VPWR VPWR sky130_ef_sc_hd__decap_12
XFILLER_27_216 VGND VGND VPWR VPWR sky130_fd_sc_hd__fill_2
XFILLER_6_109 VGND VGND VPWR VPWR sky130_ef_sc_hd__decap_12