* NGSPICE file created from bottom_left_tile.ext - technology: sky130A

* Black-box entry subcircuit for sky130_fd_sc_hd__fill_2 abstract view
.subckt sky130_fd_sc_hd__fill_2 VGND VNB VPB VPWR
.ends

* Black-box entry subcircuit for sky130_fd_sc_hd__tapvpwrvgnd_1 abstract view
.subckt sky130_fd_sc_hd__tapvpwrvgnd_1 VGND VPWR
.ends

* Black-box entry subcircuit for sky130_fd_sc_hd__decap_6 abstract view
.subckt sky130_fd_sc_hd__decap_6 VGND VNB VPB VPWR
.ends

* Black-box entry subcircuit for sky130_fd_sc_hd__fill_1 abstract view
.subckt sky130_fd_sc_hd__fill_1 VGND VNB VPB VPWR
.ends

* Black-box entry subcircuit for sky130_fd_sc_hd__decap_4 abstract view
.subckt sky130_fd_sc_hd__decap_4 VGND VNB VPB VPWR
.ends

* Black-box entry subcircuit for sky130_ef_sc_hd__decap_12 abstract view
.subckt sky130_ef_sc_hd__decap_12 VGND VNB VPB VPWR
.ends

* Black-box entry subcircuit for sky130_fd_sc_hd__mux2_1 abstract view
.subckt sky130_fd_sc_hd__mux2_1 A0 A1 S VGND VNB VPB VPWR X
.ends

* Black-box entry subcircuit for sky130_fd_sc_hd__decap_8 abstract view
.subckt sky130_fd_sc_hd__decap_8 VGND VNB VPB VPWR
.ends

* Black-box entry subcircuit for sky130_fd_sc_hd__dlymetal6s2s_1 abstract view
.subckt sky130_fd_sc_hd__dlymetal6s2s_1 A VGND VNB VPB VPWR X
.ends

* Black-box entry subcircuit for sky130_fd_sc_hd__dfrtp_1 abstract view
.subckt sky130_fd_sc_hd__dfrtp_1 CLK D RESET_B VGND VNB VPB VPWR Q
.ends

* Black-box entry subcircuit for sky130_fd_sc_hd__clkbuf_1 abstract view
.subckt sky130_fd_sc_hd__clkbuf_1 A VGND VNB VPB VPWR X
.ends

* Black-box entry subcircuit for sky130_fd_sc_hd__diode_2 abstract view
.subckt sky130_fd_sc_hd__diode_2 DIODE VGND VNB VPB VPWR
.ends

* Black-box entry subcircuit for sky130_fd_sc_hd__buf_12 abstract view
.subckt sky130_fd_sc_hd__buf_12 A VGND VNB VPB VPWR X
.ends

* Black-box entry subcircuit for sky130_fd_sc_hd__clkbuf_2 abstract view
.subckt sky130_fd_sc_hd__clkbuf_2 A VGND VNB VPB VPWR X
.ends

* Black-box entry subcircuit for sky130_fd_sc_hd__decap_3 abstract view
.subckt sky130_fd_sc_hd__decap_3 VGND VNB VPB VPWR
.ends

* Black-box entry subcircuit for sky130_fd_sc_hd__conb_1 abstract view
.subckt sky130_fd_sc_hd__conb_1 VGND VNB VPB VPWR HI LO
.ends

* Black-box entry subcircuit for sky130_fd_sc_hd__clkbuf_16 abstract view
.subckt sky130_fd_sc_hd__clkbuf_16 A VGND VNB VPB VPWR X
.ends

* Black-box entry subcircuit for sky130_fd_sc_hd__dfrtp_2 abstract view
.subckt sky130_fd_sc_hd__dfrtp_2 CLK D RESET_B VGND VNB VPB VPWR Q
.ends

.subckt bottom_left_tile VGND VPWR ccff_head ccff_tail chanx_right_in[0] chanx_right_in[10]
+ chanx_right_in[11] chanx_right_in[12] chanx_right_in[13] chanx_right_in[14] chanx_right_in[15]
+ chanx_right_in[16] chanx_right_in[17] chanx_right_in[18] chanx_right_in[19] chanx_right_in[1]
+ chanx_right_in[20] chanx_right_in[21] chanx_right_in[22] chanx_right_in[23] chanx_right_in[24]
+ chanx_right_in[25] chanx_right_in[26] chanx_right_in[27] chanx_right_in[28] chanx_right_in[29]
+ chanx_right_in[2] chanx_right_in[3] chanx_right_in[4] chanx_right_in[5] chanx_right_in[6]
+ chanx_right_in[7] chanx_right_in[8] chanx_right_in[9] chanx_right_out[0] chanx_right_out[10]
+ chanx_right_out[11] chanx_right_out[12] chanx_right_out[13] chanx_right_out[14]
+ chanx_right_out[15] chanx_right_out[16] chanx_right_out[17] chanx_right_out[18]
+ chanx_right_out[19] chanx_right_out[1] chanx_right_out[20] chanx_right_out[21] chanx_right_out[22]
+ chanx_right_out[23] chanx_right_out[24] chanx_right_out[25] chanx_right_out[26]
+ chanx_right_out[27] chanx_right_out[28] chanx_right_out[29] chanx_right_out[2] chanx_right_out[3]
+ chanx_right_out[4] chanx_right_out[5] chanx_right_out[6] chanx_right_out[7] chanx_right_out[8]
+ chanx_right_out[9] chany_top_in[0] chany_top_in[10] chany_top_in[11] chany_top_in[12]
+ chany_top_in[13] chany_top_in[14] chany_top_in[15] chany_top_in[16] chany_top_in[17]
+ chany_top_in[18] chany_top_in[19] chany_top_in[1] chany_top_in[20] chany_top_in[21]
+ chany_top_in[22] chany_top_in[23] chany_top_in[24] chany_top_in[25] chany_top_in[26]
+ chany_top_in[27] chany_top_in[28] chany_top_in[29] chany_top_in[2] chany_top_in[3]
+ chany_top_in[4] chany_top_in[5] chany_top_in[6] chany_top_in[7] chany_top_in[8]
+ chany_top_in[9] chany_top_out[0] chany_top_out[10] chany_top_out[11] chany_top_out[12]
+ chany_top_out[13] chany_top_out[14] chany_top_out[15] chany_top_out[16] chany_top_out[17]
+ chany_top_out[18] chany_top_out[19] chany_top_out[1] chany_top_out[20] chany_top_out[21]
+ chany_top_out[22] chany_top_out[23] chany_top_out[24] chany_top_out[25] chany_top_out[26]
+ chany_top_out[27] chany_top_out[28] chany_top_out[29] chany_top_out[2] chany_top_out[3]
+ chany_top_out[4] chany_top_out[5] chany_top_out[6] chany_top_out[7] chany_top_out[8]
+ chany_top_out[9] prog_clk prog_reset_top_in reset_top_in right_bottom_grid_top_width_0_height_0_subtile_0__pin_inpad_0_
+ right_bottom_grid_top_width_0_height_0_subtile_1__pin_inpad_0_ right_bottom_grid_top_width_0_height_0_subtile_2__pin_inpad_0_
+ right_bottom_grid_top_width_0_height_0_subtile_3__pin_inpad_0_ test_enable_top_in
+ top_left_grid_right_width_0_height_0_subtile_0__pin_inpad_0_ top_left_grid_right_width_0_height_0_subtile_1__pin_inpad_0_
+ top_left_grid_right_width_0_height_0_subtile_2__pin_inpad_0_ top_left_grid_right_width_0_height_0_subtile_3__pin_inpad_0_
XFILLER_39_222 VGND VGND VPWR VPWR sky130_fd_sc_hd__fill_2
XTAP_177 VGND VPWR sky130_fd_sc_hd__tapvpwrvgnd_1
XTAP_188 VGND VPWR sky130_fd_sc_hd__tapvpwrvgnd_1
XTAP_199 VGND VPWR sky130_fd_sc_hd__tapvpwrvgnd_1
XFILLER_22_133 VGND VGND VPWR VPWR sky130_fd_sc_hd__decap_6
XFILLER_13_111 VGND VGND VPWR VPWR sky130_fd_sc_hd__fill_1
XFILLER_26_63 VGND VGND VPWR VPWR sky130_fd_sc_hd__decap_4
XFILLER_26_85 VGND VGND VPWR VPWR sky130_fd_sc_hd__decap_4
XFILLER_9_137 VGND VGND VPWR VPWR sky130_ef_sc_hd__decap_12
XFILLER_13_177 VGND VGND VPWR VPWR sky130_fd_sc_hd__fill_1
Xsb_0__0_.mux_top_track_0.mux_l1_in_1_ net141 net22 sb_0__0_.mem_top_track_0.mem_out\[0\]
+ VGND VGND VPWR VPWR sb_0__0_.mux_top_track_0.sky130_fd_sc_hd__mux2_1_1_X sky130_fd_sc_hd__mux2_1
XFILLER_12_65 VGND VGND VPWR VPWR sky130_ef_sc_hd__decap_12
XFILLER_18_258 VGND VGND VPWR VPWR sky130_fd_sc_hd__decap_8
XFILLER_33_217 VGND VGND VPWR VPWR sky130_fd_sc_hd__decap_6
X_131_ sb_0__0_.mux_top_track_0.out VGND VGND VPWR VPWR net123 sky130_fd_sc_hd__dlymetal6s2s_1
Xsb_0__0_.mem_top_track_34.sky130_fd_sc_hd__dfrtp_1_0_ clknet_3_0__leaf_prog_clk sb_0__0_.mem_top_track_32.ccff_tail
+ net62 VGND VGND VPWR VPWR sb_0__0_.mem_top_track_34.mem_out\[0\] sky130_fd_sc_hd__dfrtp_1
XFILLER_2_165 VGND VGND VPWR VPWR sky130_ef_sc_hd__decap_12
XFILLER_2_121 VGND VGND VPWR VPWR sky130_ef_sc_hd__decap_12
XFILLER_0_57 VGND VGND VPWR VPWR sky130_fd_sc_hd__decap_4
XFILLER_9_55 VGND VGND VPWR VPWR sky130_fd_sc_hd__fill_1
XFILLER_14_250 VGND VGND VPWR VPWR sky130_fd_sc_hd__fill_2
Xsb_0__0_.mux_right_track_10.mux_l2_in_0_ net160 sb_0__0_.mux_right_track_10.sky130_fd_sc_hd__mux2_1_0_X
+ sb_0__0_.mem_right_track_10.ccff_tail VGND VGND VPWR VPWR sb_0__0_.mux_right_track_10.sky130_fd_sc_hd__mux2_1_1_X
+ sky130_fd_sc_hd__mux2_1
XFILLER_12_209 VGND VGND VPWR VPWR sky130_fd_sc_hd__decap_4
XFILLER_20_253 VGND VGND VPWR VPWR sky130_fd_sc_hd__fill_2
XFILLER_20_264 VGND VGND VPWR VPWR sky130_fd_sc_hd__fill_2
XFILLER_18_53 VGND VGND VPWR VPWR sky130_ef_sc_hd__decap_12
XFILLER_18_97 VGND VGND VPWR VPWR sky130_ef_sc_hd__decap_12
XFILLER_11_264 VGND VGND VPWR VPWR sky130_fd_sc_hd__fill_2
XFILLER_34_85 VGND VGND VPWR VPWR sky130_fd_sc_hd__fill_2
X_114_ sb_0__0_.mux_top_track_34.out VGND VGND VPWR VPWR net105 sky130_fd_sc_hd__clkbuf_1
Xsb_0__0_.mux_right_track_2.mux_l1_in_0_ net64 net53 sb_0__0_.mem_right_track_2.mem_out\[0\]
+ VGND VGND VPWR VPWR sb_0__0_.mux_right_track_2.sky130_fd_sc_hd__mux2_1_0_X sky130_fd_sc_hd__mux2_1
XFILLER_20_65 VGND VGND VPWR VPWR sky130_ef_sc_hd__decap_12
XANTENNA_5 net140 VGND VGND VPWR VPWR sky130_fd_sc_hd__diode_2
XFILLER_13_3 VGND VGND VPWR VPWR sky130_ef_sc_hd__decap_12
XFILLER_26_109 VGND VGND VPWR VPWR sky130_fd_sc_hd__fill_2
XFILLER_34_197 VGND VGND VPWR VPWR sky130_fd_sc_hd__fill_2
Xsb_0__0_.mux_right_track_4.sky130_fd_sc_hd__buf_4_0_ sb_0__0_.mux_right_track_4.sky130_fd_sc_hd__mux2_1_1_X
+ VGND VGND VPWR VPWR sb_0__0_.mux_right_track_4.out sky130_fd_sc_hd__clkbuf_1
Xsb_0__0_.mux_top_track_12.mux_l2_in_0_ net143 sb_0__0_.mux_top_track_12.sky130_fd_sc_hd__mux2_1_0_X
+ sb_0__0_.mem_top_track_12.ccff_tail VGND VGND VPWR VPWR sb_0__0_.mux_top_track_12.sky130_fd_sc_hd__mux2_1_1_X
+ sky130_fd_sc_hd__mux2_1
Xoutput75 net75 VGND VGND VPWR VPWR chanx_right_out[12] sky130_fd_sc_hd__buf_12
Xoutput97 net97 VGND VGND VPWR VPWR chanx_right_out[5] sky130_fd_sc_hd__buf_12
Xoutput86 net86 VGND VGND VPWR VPWR chanx_right_out[22] sky130_fd_sc_hd__buf_12
XFILLER_16_153 VGND VGND VPWR VPWR sky130_fd_sc_hd__decap_8
XFILLER_16_197 VGND VGND VPWR VPWR sky130_fd_sc_hd__decap_6
XTAP_123 VGND VPWR sky130_fd_sc_hd__tapvpwrvgnd_1
XTAP_112 VGND VPWR sky130_fd_sc_hd__tapvpwrvgnd_1
XTAP_101 VGND VPWR sky130_fd_sc_hd__tapvpwrvgnd_1
XTAP_134 VGND VPWR sky130_fd_sc_hd__tapvpwrvgnd_1
XTAP_145 VGND VPWR sky130_fd_sc_hd__tapvpwrvgnd_1
XTAP_156 VGND VPWR sky130_fd_sc_hd__tapvpwrvgnd_1
XTAP_167 VGND VPWR sky130_fd_sc_hd__tapvpwrvgnd_1
XTAP_178 VGND VPWR sky130_fd_sc_hd__tapvpwrvgnd_1
XTAP_189 VGND VPWR sky130_fd_sc_hd__tapvpwrvgnd_1
Xsb_0__0_.mem_right_track_44.sky130_fd_sc_hd__dfrtp_1_1_ clknet_3_4__leaf_prog_clk
+ sb_0__0_.mem_right_track_44.mem_out\[0\] net62 VGND VGND VPWR VPWR sb_0__0_.mem_right_track_44.ccff_tail
+ sky130_fd_sc_hd__dfrtp_1
XFILLER_9_105 VGND VGND VPWR VPWR sky130_fd_sc_hd__decap_6
XFILLER_13_167 VGND VGND VPWR VPWR sky130_fd_sc_hd__fill_1
XFILLER_26_42 VGND VGND VPWR VPWR sky130_fd_sc_hd__decap_6
XFILLER_26_75 VGND VGND VPWR VPWR sky130_fd_sc_hd__decap_4
XFILLER_9_149 VGND VGND VPWR VPWR sky130_ef_sc_hd__decap_12
Xsb_0__0_.mux_top_track_0.mux_l1_in_0_ net70 net67 sb_0__0_.mem_top_track_0.mem_out\[0\]
+ VGND VGND VPWR VPWR sb_0__0_.mux_top_track_0.sky130_fd_sc_hd__mux2_1_0_X sky130_fd_sc_hd__mux2_1
XFILLER_3_57 VGND VGND VPWR VPWR sky130_ef_sc_hd__decap_12
XFILLER_36_248 VGND VGND VPWR VPWR sky130_fd_sc_hd__decap_4
Xsb_0__0_.mux_right_track_10.sky130_fd_sc_hd__buf_4_0_ sb_0__0_.mux_right_track_10.sky130_fd_sc_hd__mux2_1_1_X
+ VGND VGND VPWR VPWR sb_0__0_.mux_right_track_10.out sky130_fd_sc_hd__clkbuf_1
XFILLER_27_215 VGND VGND VPWR VPWR sky130_fd_sc_hd__decap_4
XFILLER_27_248 VGND VGND VPWR VPWR sky130_fd_sc_hd__decap_4
XFILLER_12_77 VGND VGND VPWR VPWR sky130_fd_sc_hd__decap_6
XFILLER_37_63 VGND VGND VPWR VPWR sky130_fd_sc_hd__decap_6
X_130_ sb_0__0_.mux_top_track_2.out VGND VGND VPWR VPWR net122 sky130_fd_sc_hd__dlymetal6s2s_1
XFILLER_2_177 VGND VGND VPWR VPWR sky130_ef_sc_hd__decap_12
XFILLER_2_133 VGND VGND VPWR VPWR sky130_fd_sc_hd__decap_6
XFILLER_14_240 VGND VGND VPWR VPWR sky130_fd_sc_hd__decap_6
XFILLER_18_65 VGND VGND VPWR VPWR sky130_ef_sc_hd__decap_12
X_113_ net3 VGND VGND VPWR VPWR net104 sky130_fd_sc_hd__clkbuf_2
XFILLER_7_225 VGND VGND VPWR VPWR sky130_fd_sc_hd__decap_3
XFILLER_37_184 VGND VGND VPWR VPWR sky130_fd_sc_hd__decap_4
XFILLER_20_77 VGND VGND VPWR VPWR sky130_fd_sc_hd__decap_6
Xsb_0__0_.mux_top_track_44.mux_l2_in_0__153 VGND VGND VPWR VPWR sb_0__0_.mux_top_track_44.mux_l2_in_0__153/HI
+ net153 sky130_fd_sc_hd__conb_1
XFILLER_28_195 VGND VGND VPWR VPWR sky130_fd_sc_hd__fill_1
Xsb_0__0_.mux_right_track_10.mux_l1_in_0_ net65 net49 sb_0__0_.mem_right_track_10.mem_out\[0\]
+ VGND VGND VPWR VPWR sb_0__0_.mux_right_track_10.sky130_fd_sc_hd__mux2_1_0_X sky130_fd_sc_hd__mux2_1
XANTENNA_6 net140 VGND VGND VPWR VPWR sky130_fd_sc_hd__diode_2
XFILLER_19_162 VGND VGND VPWR VPWR sky130_fd_sc_hd__decap_6
XFILLER_34_187 VGND VGND VPWR VPWR sky130_fd_sc_hd__decap_4
XFILLER_34_165 VGND VGND VPWR VPWR sky130_fd_sc_hd__decap_4
Xsb_0__0_.mem_right_track_12.sky130_fd_sc_hd__dfrtp_1_1_ clknet_3_6__leaf_prog_clk
+ sb_0__0_.mem_right_track_12.mem_out\[0\] net62 VGND VGND VPWR VPWR sb_0__0_.mem_right_track_12.ccff_tail
+ sky130_fd_sc_hd__dfrtp_1
XFILLER_40_113 VGND VGND VPWR VPWR sky130_fd_sc_hd__fill_2
XFILLER_15_55 VGND VGND VPWR VPWR sky130_fd_sc_hd__fill_1
XFILLER_31_54 VGND VGND VPWR VPWR sky130_fd_sc_hd__fill_2
Xoutput76 net76 VGND VGND VPWR VPWR chanx_right_out[13] sky130_fd_sc_hd__buf_12
Xoutput98 net98 VGND VGND VPWR VPWR chanx_right_out[6] sky130_fd_sc_hd__buf_12
XFILLER_0_253 VGND VGND VPWR VPWR sky130_fd_sc_hd__fill_2
Xoutput87 net87 VGND VGND VPWR VPWR chanx_right_out[23] sky130_fd_sc_hd__buf_12
XFILLER_16_121 VGND VGND VPWR VPWR sky130_ef_sc_hd__decap_12
XFILLER_31_113 VGND VGND VPWR VPWR sky130_fd_sc_hd__decap_4
XFILLER_31_146 VGND VGND VPWR VPWR sky130_fd_sc_hd__decap_4
XFILLER_39_202 VGND VGND VPWR VPWR sky130_fd_sc_hd__decap_4
XTAP_124 VGND VPWR sky130_fd_sc_hd__tapvpwrvgnd_1
XTAP_113 VGND VPWR sky130_fd_sc_hd__tapvpwrvgnd_1
XTAP_102 VGND VPWR sky130_fd_sc_hd__tapvpwrvgnd_1
XTAP_135 VGND VPWR sky130_fd_sc_hd__tapvpwrvgnd_1
XTAP_146 VGND VPWR sky130_fd_sc_hd__tapvpwrvgnd_1
XTAP_157 VGND VPWR sky130_fd_sc_hd__tapvpwrvgnd_1
XTAP_168 VGND VPWR sky130_fd_sc_hd__tapvpwrvgnd_1
XTAP_179 VGND VPWR sky130_fd_sc_hd__tapvpwrvgnd_1
XFILLER_22_124 VGND VGND VPWR VPWR sky130_fd_sc_hd__decap_4
Xsb_0__0_.mem_right_track_44.sky130_fd_sc_hd__dfrtp_1_0_ clknet_3_1__leaf_prog_clk
+ sb_0__0_.mem_right_track_34.ccff_tail net62 VGND VGND VPWR VPWR sb_0__0_.mem_right_track_44.mem_out\[0\]
+ sky130_fd_sc_hd__dfrtp_1
XFILLER_13_113 VGND VGND VPWR VPWR sky130_ef_sc_hd__decap_12
Xsb_0__0_.mem_right_track_0.sky130_fd_sc_hd__dfrtp_1_1_ clknet_3_3__leaf_prog_clk
+ sb_0__0_.mem_right_track_0.mem_out\[0\] net62 VGND VGND VPWR VPWR sb_0__0_.mem_right_track_0.ccff_tail
+ sky130_fd_sc_hd__dfrtp_1
XFILLER_3_69 VGND VGND VPWR VPWR sky130_ef_sc_hd__decap_12
Xsb_0__0_.mux_top_track_12.mux_l1_in_0_ net16 net67 sb_0__0_.mem_top_track_12.mem_out\[0\]
+ VGND VGND VPWR VPWR sb_0__0_.mux_top_track_12.sky130_fd_sc_hd__mux2_1_0_X sky130_fd_sc_hd__mux2_1
XFILLER_6_109 VGND VGND VPWR VPWR sky130_ef_sc_hd__decap_12
XFILLER_37_86 VGND VGND VPWR VPWR sky130_fd_sc_hd__decap_4
Xsb_0__0_.mux_top_track_28.mux_l2_in_0__148 VGND VGND VPWR VPWR sb_0__0_.mux_top_track_28.mux_l2_in_0__148/HI
+ net148 sky130_fd_sc_hd__conb_1
Xsb_0__0_.mux_top_track_4.sky130_fd_sc_hd__buf_4_0_ sb_0__0_.mux_top_track_4.sky130_fd_sc_hd__mux2_1_1_X
+ VGND VGND VPWR VPWR sb_0__0_.mux_top_track_4.out sky130_fd_sc_hd__clkbuf_1
Xsb_0__0_.mux_right_track_32.sky130_fd_sc_hd__buf_4_0_ sb_0__0_.mux_right_track_32.sky130_fd_sc_hd__mux2_1_1_X
+ VGND VGND VPWR VPWR sb_0__0_.mux_right_track_32.out sky130_fd_sc_hd__clkbuf_1
XFILLER_23_55 VGND VGND VPWR VPWR sky130_fd_sc_hd__fill_1
XFILLER_3_3 VGND VGND VPWR VPWR sky130_ef_sc_hd__decap_12
XFILLER_2_189 VGND VGND VPWR VPWR sky130_fd_sc_hd__decap_6
XFILLER_0_15 VGND VGND VPWR VPWR sky130_ef_sc_hd__decap_12
XFILLER_9_57 VGND VGND VPWR VPWR sky130_ef_sc_hd__decap_12
XFILLER_36_3 VGND VGND VPWR VPWR sky130_fd_sc_hd__decap_6
XFILLER_20_222 VGND VGND VPWR VPWR sky130_fd_sc_hd__decap_4
XFILLER_18_77 VGND VGND VPWR VPWR sky130_fd_sc_hd__decap_6
XFILLER_34_54 VGND VGND VPWR VPWR sky130_fd_sc_hd__decap_8
X_112_ net31 VGND VGND VPWR VPWR net103 sky130_fd_sc_hd__clkbuf_2
XFILLER_11_222 VGND VGND VPWR VPWR sky130_fd_sc_hd__fill_2
XFILLER_11_244 VGND VGND VPWR VPWR sky130_fd_sc_hd__decap_4
XFILLER_37_163 VGND VGND VPWR VPWR sky130_fd_sc_hd__decap_4
XFILLER_28_141 VGND VGND VPWR VPWR sky130_fd_sc_hd__decap_8
XFILLER_29_21 VGND VGND VPWR VPWR sky130_fd_sc_hd__decap_4
XFILLER_29_43 VGND VGND VPWR VPWR sky130_fd_sc_hd__fill_1
XFILLER_29_54 VGND VGND VPWR VPWR sky130_fd_sc_hd__fill_2
XANTENNA_7 net152 VGND VGND VPWR VPWR sky130_fd_sc_hd__diode_2
XFILLER_34_177 VGND VGND VPWR VPWR sky130_fd_sc_hd__fill_1
Xsb_0__0_.mem_right_track_12.sky130_fd_sc_hd__dfrtp_1_0_ clknet_3_7__leaf_prog_clk
+ sb_0__0_.mem_right_track_10.ccff_tail net62 VGND VGND VPWR VPWR sb_0__0_.mem_right_track_12.mem_out\[0\]
+ sky130_fd_sc_hd__dfrtp_1
XFILLER_40_158 VGND VGND VPWR VPWR sky130_fd_sc_hd__fill_1
XFILLER_40_147 VGND VGND VPWR VPWR sky130_fd_sc_hd__decap_6
XFILLER_25_166 VGND VGND VPWR VPWR sky130_fd_sc_hd__fill_2
XFILLER_31_44 VGND VGND VPWR VPWR sky130_fd_sc_hd__fill_1
Xoutput77 net77 VGND VGND VPWR VPWR chanx_right_out[14] sky130_fd_sc_hd__buf_12
Xoutput99 net99 VGND VGND VPWR VPWR chanx_right_out[7] sky130_fd_sc_hd__buf_12
Xoutput88 net88 VGND VGND VPWR VPWR chanx_right_out[24] sky130_fd_sc_hd__buf_12
XFILLER_16_133 VGND VGND VPWR VPWR sky130_fd_sc_hd__decap_6
XFILLER_31_169 VGND VGND VPWR VPWR sky130_fd_sc_hd__decap_3
XTAP_114 VGND VPWR sky130_fd_sc_hd__tapvpwrvgnd_1
XTAP_103 VGND VPWR sky130_fd_sc_hd__tapvpwrvgnd_1
XTAP_125 VGND VPWR sky130_fd_sc_hd__tapvpwrvgnd_1
XTAP_136 VGND VPWR sky130_fd_sc_hd__tapvpwrvgnd_1
XTAP_147 VGND VPWR sky130_fd_sc_hd__tapvpwrvgnd_1
XTAP_158 VGND VPWR sky130_fd_sc_hd__tapvpwrvgnd_1
XTAP_169 VGND VPWR sky130_fd_sc_hd__tapvpwrvgnd_1
XFILLER_22_103 VGND VGND VPWR VPWR sky130_fd_sc_hd__fill_1
XFILLER_13_125 VGND VGND VPWR VPWR sky130_ef_sc_hd__decap_12
XFILLER_13_169 VGND VGND VPWR VPWR sky130_fd_sc_hd__decap_8
Xsb_0__0_.mem_right_track_0.sky130_fd_sc_hd__dfrtp_1_0_ clknet_3_3__leaf_prog_clk
+ sb_0__0_.mem_right_track_0.ccff_head net62 VGND VGND VPWR VPWR sb_0__0_.mem_right_track_0.mem_out\[0\]
+ sky130_fd_sc_hd__dfrtp_1
XFILLER_3_15 VGND VGND VPWR VPWR sky130_ef_sc_hd__decap_12
XFILLER_8_195 VGND VGND VPWR VPWR sky130_fd_sc_hd__fill_1
XFILLER_10_139 VGND VGND VPWR VPWR sky130_fd_sc_hd__fill_1
Xsb_0__0_.mux_right_track_34.mux_l2_in_0_ net133 sb_0__0_.mux_right_track_34.sky130_fd_sc_hd__mux2_1_0_X
+ sb_0__0_.mem_right_track_34.ccff_tail VGND VGND VPWR VPWR sb_0__0_.mux_right_track_34.sky130_fd_sc_hd__mux2_1_1_X
+ sky130_fd_sc_hd__mux2_1
Xsb_0__0_.mem_right_track_18.sky130_fd_sc_hd__dfrtp_1_1_ clknet_3_5__leaf_prog_clk
+ sb_0__0_.mem_right_track_18.mem_out\[0\] net62 VGND VGND VPWR VPWR sb_0__0_.mem_right_track_18.ccff_tail
+ sky130_fd_sc_hd__dfrtp_1
XFILLER_37_54 VGND VGND VPWR VPWR sky130_fd_sc_hd__fill_2
XFILLER_18_228 VGND VGND VPWR VPWR sky130_fd_sc_hd__fill_2
XFILLER_26_250 VGND VGND VPWR VPWR sky130_fd_sc_hd__fill_2
XFILLER_24_209 VGND VGND VPWR VPWR sky130_fd_sc_hd__decap_4
XFILLER_32_253 VGND VGND VPWR VPWR sky130_fd_sc_hd__fill_2
XFILLER_32_264 VGND VGND VPWR VPWR sky130_fd_sc_hd__fill_2
XFILLER_15_209 VGND VGND VPWR VPWR sky130_fd_sc_hd__decap_4
XFILLER_23_231 VGND VGND VPWR VPWR sky130_fd_sc_hd__decap_6
XFILLER_23_264 VGND VGND VPWR VPWR sky130_fd_sc_hd__fill_2
Xsb_0__0_.mux_right_track_6.mux_l1_in_1__139 VGND VGND VPWR VPWR sb_0__0_.mux_right_track_6.mux_l1_in_1__139/HI
+ net139 sky130_fd_sc_hd__conb_1
XFILLER_0_27 VGND VGND VPWR VPWR sky130_fd_sc_hd__fill_1
XFILLER_9_69 VGND VGND VPWR VPWR sky130_ef_sc_hd__decap_12
XFILLER_14_253 VGND VGND VPWR VPWR sky130_fd_sc_hd__fill_2
XFILLER_14_264 VGND VGND VPWR VPWR sky130_fd_sc_hd__fill_2
XFILLER_29_3 VGND VGND VPWR VPWR sky130_fd_sc_hd__decap_4
Xsb_0__0_.mem_right_track_6.sky130_fd_sc_hd__dfrtp_1_1_ clknet_3_7__leaf_prog_clk
+ sb_0__0_.mem_right_track_6.mem_out\[0\] net62 VGND VGND VPWR VPWR sb_0__0_.mem_right_track_6.ccff_tail
+ sky130_fd_sc_hd__dfrtp_1
XFILLER_20_201 VGND VGND VPWR VPWR sky130_fd_sc_hd__fill_1
X_111_ net30 VGND VGND VPWR VPWR net131 sky130_fd_sc_hd__clkbuf_2
XFILLER_7_205 VGND VGND VPWR VPWR sky130_ef_sc_hd__decap_12
XFILLER_37_131 VGND VGND VPWR VPWR sky130_fd_sc_hd__decap_4
XFILLER_1_81 VGND VGND VPWR VPWR sky130_ef_sc_hd__decap_12
XFILLER_28_197 VGND VGND VPWR VPWR sky130_fd_sc_hd__fill_2
XFILLER_29_88 VGND VGND VPWR VPWR sky130_fd_sc_hd__fill_2
XANTENNA_8 net152 VGND VGND VPWR VPWR sky130_fd_sc_hd__diode_2
XFILLER_6_15 VGND VGND VPWR VPWR sky130_ef_sc_hd__decap_12
Xsb_0__0_.mux_right_track_48.sky130_fd_sc_hd__buf_4_0_ sb_0__0_.mux_right_track_48.sky130_fd_sc_hd__mux2_1_1_X
+ VGND VGND VPWR VPWR sb_0__0_.mux_right_track_48.out sky130_fd_sc_hd__clkbuf_1
XFILLER_15_57 VGND VGND VPWR VPWR sky130_ef_sc_hd__decap_12
XFILLER_25_156 VGND VGND VPWR VPWR sky130_fd_sc_hd__fill_1
XFILLER_31_23 VGND VGND VPWR VPWR sky130_fd_sc_hd__decap_8
XFILLER_31_78 VGND VGND VPWR VPWR sky130_fd_sc_hd__fill_2
Xoutput78 net78 VGND VGND VPWR VPWR chanx_right_out[15] sky130_fd_sc_hd__buf_12
XFILLER_0_222 VGND VGND VPWR VPWR sky130_fd_sc_hd__fill_2
XFILLER_0_233 VGND VGND VPWR VPWR sky130_fd_sc_hd__fill_1
Xoutput89 net89 VGND VGND VPWR VPWR chanx_right_out[25] sky130_fd_sc_hd__buf_12
XFILLER_31_159 VGND VGND VPWR VPWR sky130_fd_sc_hd__decap_4
XTAP_126 VGND VPWR sky130_fd_sc_hd__tapvpwrvgnd_1
XTAP_115 VGND VPWR sky130_fd_sc_hd__tapvpwrvgnd_1
XTAP_104 VGND VPWR sky130_fd_sc_hd__tapvpwrvgnd_1
XTAP_137 VGND VPWR sky130_fd_sc_hd__tapvpwrvgnd_1
XTAP_148 VGND VPWR sky130_fd_sc_hd__tapvpwrvgnd_1
XFILLER_39_248 VGND VGND VPWR VPWR sky130_ef_sc_hd__decap_12
XFILLER_11_3 VGND VGND VPWR VPWR sky130_ef_sc_hd__decap_12
XTAP_159 VGND VPWR sky130_fd_sc_hd__tapvpwrvgnd_1
XFILLER_26_89 VGND VGND VPWR VPWR sky130_fd_sc_hd__fill_1
XFILLER_13_137 VGND VGND VPWR VPWR sky130_ef_sc_hd__decap_12
XFILLER_3_27 VGND VGND VPWR VPWR sky130_ef_sc_hd__decap_12
Xsb_0__0_.mux_top_track_14.sky130_fd_sc_hd__buf_4_0_ sb_0__0_.mux_top_track_14.sky130_fd_sc_hd__mux2_1_1_X
+ VGND VGND VPWR VPWR sb_0__0_.mux_top_track_14.out sky130_fd_sc_hd__clkbuf_1
XFILLER_8_141 VGND VGND VPWR VPWR sky130_ef_sc_hd__decap_12
Xsb_0__0_.mem_right_track_18.sky130_fd_sc_hd__dfrtp_1_0_ clknet_3_5__leaf_prog_clk
+ sb_0__0_.mem_right_track_16.ccff_tail net62 VGND VGND VPWR VPWR sb_0__0_.mem_right_track_18.mem_out\[0\]
+ sky130_fd_sc_hd__dfrtp_1
XFILLER_5_111 VGND VGND VPWR VPWR sky130_fd_sc_hd__fill_1
XFILLER_23_57 VGND VGND VPWR VPWR sky130_ef_sc_hd__decap_12
XFILLER_9_15 VGND VGND VPWR VPWR sky130_ef_sc_hd__decap_12
Xsb_0__0_.mux_right_track_34.mux_l1_in_0_ net66 net36 sb_0__0_.mem_right_track_34.mem_out\[0\]
+ VGND VGND VPWR VPWR sb_0__0_.mux_right_track_34.sky130_fd_sc_hd__mux2_1_0_X sky130_fd_sc_hd__mux2_1
Xsb_0__0_.mem_right_track_6.sky130_fd_sc_hd__dfrtp_1_0_ clknet_3_7__leaf_prog_clk
+ sb_0__0_.mem_right_track_4.ccff_tail net62 VGND VGND VPWR VPWR sb_0__0_.mem_right_track_6.mem_out\[0\]
+ sky130_fd_sc_hd__dfrtp_1
XFILLER_20_246 VGND VGND VPWR VPWR sky130_fd_sc_hd__decap_6
Xsb_0__0_.mem_right_track_30.sky130_fd_sc_hd__dfrtp_1_1_ clknet_3_5__leaf_prog_clk
+ sb_0__0_.mem_right_track_30.mem_out\[0\] net62 VGND VGND VPWR VPWR sb_0__0_.mem_right_track_30.ccff_tail
+ sky130_fd_sc_hd__dfrtp_1
Xsb_0__0_.mux_top_track_12.mux_l2_in_0__143 VGND VGND VPWR VPWR sb_0__0_.mux_top_track_12.mux_l2_in_0__143/HI
+ net143 sky130_fd_sc_hd__conb_1
Xsb_0__0_.mux_right_track_46.mux_l2_in_0_ net136 sb_0__0_.mux_right_track_46.sky130_fd_sc_hd__mux2_1_0_X
+ sb_0__0_.mem_right_track_46.ccff_tail VGND VGND VPWR VPWR sb_0__0_.mux_right_track_46.sky130_fd_sc_hd__mux2_1_1_X
+ sky130_fd_sc_hd__mux2_1
X_110_ net29 VGND VGND VPWR VPWR net130 sky130_fd_sc_hd__clkbuf_2
XFILLER_7_217 VGND VGND VPWR VPWR sky130_fd_sc_hd__decap_6
XFILLER_6_250 VGND VGND VPWR VPWR sky130_fd_sc_hd__fill_2
XFILLER_37_110 VGND VGND VPWR VPWR sky130_fd_sc_hd__fill_2
XFILLER_1_93 VGND VGND VPWR VPWR sky130_ef_sc_hd__decap_12
XFILLER_4_209 VGND VGND VPWR VPWR sky130_ef_sc_hd__decap_12
XFILLER_29_34 VGND VGND VPWR VPWR sky130_fd_sc_hd__decap_4
XFILLER_29_78 VGND VGND VPWR VPWR sky130_fd_sc_hd__fill_1
XFILLER_6_27 VGND VGND VPWR VPWR sky130_fd_sc_hd__fill_1
XFILLER_3_264 VGND VGND VPWR VPWR sky130_fd_sc_hd__fill_2
XANTENNA_9 net157 VGND VGND VPWR VPWR sky130_fd_sc_hd__diode_2
Xsb_0__0_.mux_right_track_16.mux_l2_in_0__163 VGND VGND VPWR VPWR sb_0__0_.mux_right_track_16.mux_l2_in_0__163/HI
+ net163 sky130_fd_sc_hd__conb_1
XFILLER_25_113 VGND VGND VPWR VPWR sky130_fd_sc_hd__fill_2
XFILLER_25_135 VGND VGND VPWR VPWR sky130_fd_sc_hd__decap_4
XFILLER_40_138 VGND VGND VPWR VPWR sky130_fd_sc_hd__fill_2
XFILLER_15_69 VGND VGND VPWR VPWR sky130_ef_sc_hd__decap_12
XFILLER_31_57 VGND VGND VPWR VPWR sky130_fd_sc_hd__fill_2
Xoutput79 net79 VGND VGND VPWR VPWR chanx_right_out[16] sky130_fd_sc_hd__buf_12
Xsb_0__0_.mux_top_track_48.mux_l2_in_0_ net155 sb_0__0_.mux_top_track_48.sky130_fd_sc_hd__mux2_1_0_X
+ sb_0__0_.mem_top_track_48.ccff_tail VGND VGND VPWR VPWR sb_0__0_.mux_top_track_48.sky130_fd_sc_hd__mux2_1_1_X
+ sky130_fd_sc_hd__mux2_1
XTAP_127 VGND VPWR sky130_fd_sc_hd__tapvpwrvgnd_1
XTAP_116 VGND VPWR sky130_fd_sc_hd__tapvpwrvgnd_1
XTAP_105 VGND VPWR sky130_fd_sc_hd__tapvpwrvgnd_1
XTAP_138 VGND VPWR sky130_fd_sc_hd__tapvpwrvgnd_1
XTAP_149 VGND VPWR sky130_fd_sc_hd__tapvpwrvgnd_1
Xsb_0__0_.mux_top_track_50.mux_l2_in_0_ net156 sb_0__0_.mux_top_track_50.sky130_fd_sc_hd__mux2_1_0_X
+ sb_0__0_.mem_right_track_0.ccff_head VGND VGND VPWR VPWR sb_0__0_.mux_top_track_50.sky130_fd_sc_hd__mux2_1_1_X
+ sky130_fd_sc_hd__mux2_1
XFILLER_7_81 VGND VGND VPWR VPWR sky130_ef_sc_hd__decap_12
XFILLER_13_105 VGND VGND VPWR VPWR sky130_fd_sc_hd__decap_6
XFILLER_13_149 VGND VGND VPWR VPWR sky130_ef_sc_hd__decap_12
XFILLER_26_57 VGND VGND VPWR VPWR sky130_fd_sc_hd__decap_4
XFILLER_21_160 VGND VGND VPWR VPWR sky130_fd_sc_hd__decap_3
XFILLER_21_182 VGND VGND VPWR VPWR sky130_fd_sc_hd__decap_4
XFILLER_3_39 VGND VGND VPWR VPWR sky130_ef_sc_hd__decap_12
XFILLER_36_208 VGND VGND VPWR VPWR sky130_fd_sc_hd__fill_2
XFILLER_8_197 VGND VGND VPWR VPWR sky130_ef_sc_hd__decap_12
XFILLER_8_153 VGND VGND VPWR VPWR sky130_ef_sc_hd__decap_12
XFILLER_27_208 VGND VGND VPWR VPWR sky130_fd_sc_hd__decap_4
XFILLER_12_15 VGND VGND VPWR VPWR sky130_ef_sc_hd__decap_12
XFILLER_37_34 VGND VGND VPWR VPWR sky130_fd_sc_hd__decap_4
XFILLER_5_167 VGND VGND VPWR VPWR sky130_fd_sc_hd__fill_1
XFILLER_38_9 VGND VGND VPWR VPWR sky130_fd_sc_hd__fill_1
XFILLER_23_69 VGND VGND VPWR VPWR sky130_ef_sc_hd__decap_12
XFILLER_0_29 VGND VGND VPWR VPWR sky130_ef_sc_hd__decap_12
XFILLER_14_211 VGND VGND VPWR VPWR sky130_fd_sc_hd__decap_8
XFILLER_9_27 VGND VGND VPWR VPWR sky130_ef_sc_hd__decap_12
XFILLER_1_181 VGND VGND VPWR VPWR sky130_fd_sc_hd__decap_4
Xsb_0__0_.mem_right_track_30.sky130_fd_sc_hd__dfrtp_1_0_ clknet_3_4__leaf_prog_clk
+ sb_0__0_.mem_right_track_28.ccff_tail net62 VGND VGND VPWR VPWR sb_0__0_.mem_right_track_30.mem_out\[0\]
+ sky130_fd_sc_hd__dfrtp_1
XFILLER_11_225 VGND VGND VPWR VPWR sky130_fd_sc_hd__decap_3
XFILLER_34_79 VGND VGND VPWR VPWR sky130_fd_sc_hd__decap_4
XFILLER_1_3 VGND VGND VPWR VPWR sky130_ef_sc_hd__decap_12
XFILLER_34_3 VGND VGND VPWR VPWR sky130_fd_sc_hd__decap_6
XFILLER_37_155 VGND VGND VPWR VPWR sky130_fd_sc_hd__decap_4
XFILLER_20_15 VGND VGND VPWR VPWR sky130_ef_sc_hd__decap_12
XFILLER_29_57 VGND VGND VPWR VPWR sky130_fd_sc_hd__decap_8
XFILLER_29_68 VGND VGND VPWR VPWR sky130_fd_sc_hd__decap_4
XFILLER_19_111 VGND VGND VPWR VPWR sky130_fd_sc_hd__fill_1
Xsb_0__0_.mux_right_track_46.mux_l1_in_0_ net64 net59 sb_0__0_.mem_right_track_46.mem_out\[0\]
+ VGND VGND VPWR VPWR sb_0__0_.mux_right_track_46.sky130_fd_sc_hd__mux2_1_0_X sky130_fd_sc_hd__mux2_1
XFILLER_34_136 VGND VGND VPWR VPWR sky130_fd_sc_hd__decap_4
XFILLER_15_15 VGND VGND VPWR VPWR sky130_ef_sc_hd__decap_12
XFILLER_25_169 VGND VGND VPWR VPWR sky130_fd_sc_hd__decap_6
XFILLER_31_36 VGND VGND VPWR VPWR sky130_fd_sc_hd__fill_1
XFILLER_31_69 VGND VGND VPWR VPWR sky130_fd_sc_hd__decap_3
XFILLER_31_117 VGND VGND VPWR VPWR sky130_fd_sc_hd__fill_1
XTAP_128 VGND VPWR sky130_fd_sc_hd__tapvpwrvgnd_1
XTAP_117 VGND VPWR sky130_fd_sc_hd__tapvpwrvgnd_1
XTAP_106 VGND VPWR sky130_fd_sc_hd__tapvpwrvgnd_1
XTAP_139 VGND VPWR sky130_fd_sc_hd__tapvpwrvgnd_1
XPHY_0 VGND VGND VPWR VPWR sky130_fd_sc_hd__decap_3
XFILLER_15_191 VGND VGND VPWR VPWR sky130_fd_sc_hd__fill_1
XFILLER_22_139 VGND VGND VPWR VPWR sky130_fd_sc_hd__fill_1
XFILLER_7_93 VGND VGND VPWR VPWR sky130_ef_sc_hd__decap_12
XFILLER_26_69 VGND VGND VPWR VPWR sky130_fd_sc_hd__decap_4
XFILLER_8_121 VGND VGND VPWR VPWR sky130_ef_sc_hd__decap_12
XFILLER_8_165 VGND VGND VPWR VPWR sky130_ef_sc_hd__decap_12
XFILLER_35_264 VGND VGND VPWR VPWR sky130_fd_sc_hd__fill_2
XFILLER_35_253 VGND VGND VPWR VPWR sky130_fd_sc_hd__fill_2
Xsb_0__0_.mem_top_track_0.sky130_fd_sc_hd__dfrtp_1_1_ clknet_3_3__leaf_prog_clk sb_0__0_.mem_top_track_0.mem_out\[0\]
+ net62 VGND VGND VPWR VPWR sb_0__0_.mem_top_track_0.ccff_tail sky130_fd_sc_hd__dfrtp_1
XFILLER_10_109 VGND VGND VPWR VPWR sky130_ef_sc_hd__decap_12
XFILLER_12_27 VGND VGND VPWR VPWR sky130_fd_sc_hd__fill_1
Xsb_0__0_.mux_top_track_48.mux_l1_in_0_ net26 net69 sb_0__0_.mem_top_track_48.mem_out\[0\]
+ VGND VGND VPWR VPWR sb_0__0_.mux_top_track_48.sky130_fd_sc_hd__mux2_1_0_X sky130_fd_sc_hd__mux2_1
XFILLER_37_57 VGND VGND VPWR VPWR sky130_fd_sc_hd__fill_2
XFILLER_26_253 VGND VGND VPWR VPWR sky130_fd_sc_hd__fill_2
XFILLER_5_113 VGND VGND VPWR VPWR sky130_ef_sc_hd__decap_12
Xsb_0__0_.mux_top_track_50.mux_l1_in_0_ net25 net70 sb_0__0_.mem_top_track_50.mem_out\[0\]
+ VGND VGND VPWR VPWR sb_0__0_.mux_top_track_50.sky130_fd_sc_hd__mux2_1_0_X sky130_fd_sc_hd__mux2_1
XFILLER_17_264 VGND VGND VPWR VPWR sky130_fd_sc_hd__fill_2
XFILLER_32_245 VGND VGND VPWR VPWR sky130_fd_sc_hd__fill_1
Xsb_0__0_.mux_right_track_34.mux_l2_in_0__133 VGND VGND VPWR VPWR sb_0__0_.mux_right_track_34.mux_l2_in_0__133/HI
+ net133 sky130_fd_sc_hd__conb_1
XFILLER_4_83 VGND VGND VPWR VPWR sky130_fd_sc_hd__fill_1
XFILLER_23_15 VGND VGND VPWR VPWR sky130_ef_sc_hd__decap_12
XFILLER_23_223 VGND VGND VPWR VPWR sky130_fd_sc_hd__fill_1
XFILLER_9_39 VGND VGND VPWR VPWR sky130_ef_sc_hd__decap_12
XFILLER_13_81 VGND VGND VPWR VPWR sky130_ef_sc_hd__decap_12
XFILLER_18_15 VGND VGND VPWR VPWR sky130_ef_sc_hd__decap_12
XFILLER_11_215 VGND VGND VPWR VPWR sky130_fd_sc_hd__decap_4
XFILLER_34_47 VGND VGND VPWR VPWR sky130_fd_sc_hd__decap_4
XFILLER_40_90 VGND VGND VPWR VPWR sky130_fd_sc_hd__decap_4
XFILLER_6_230 VGND VGND VPWR VPWR sky130_fd_sc_hd__decap_4
X_099_ sb_0__0_.mux_right_track_4.out VGND VGND VPWR VPWR net91 sky130_fd_sc_hd__clkbuf_1
XFILLER_27_3 VGND VGND VPWR VPWR sky130_ef_sc_hd__decap_12
XFILLER_37_167 VGND VGND VPWR VPWR sky130_fd_sc_hd__fill_1
XFILLER_1_51 VGND VGND VPWR VPWR sky130_fd_sc_hd__decap_4
XFILLER_20_27 VGND VGND VPWR VPWR sky130_fd_sc_hd__fill_1
XFILLER_29_47 VGND VGND VPWR VPWR sky130_fd_sc_hd__decap_4