* NGSPICE file created from bottom_left_tile.ext - technology: sky130A

* Black-box entry subcircuit for sky130_fd_sc_hd__tapvpwrvgnd_1 abstract view
.subckt sky130_fd_sc_hd__tapvpwrvgnd_1 VGND VPWR
.ends

* Black-box entry subcircuit for sky130_ef_sc_hd__decap_12 abstract view
.subckt sky130_ef_sc_hd__decap_12 VGND VNB VPB VPWR
.ends

* Black-box entry subcircuit for sky130_fd_sc_hd__decap_4 abstract view
.subckt sky130_fd_sc_hd__decap_4 VGND VNB VPB VPWR
.ends

* Black-box entry subcircuit for sky130_fd_sc_hd__decap_6 abstract view
.subckt sky130_fd_sc_hd__decap_6 VGND VNB VPB VPWR
.ends

* Black-box entry subcircuit for sky130_fd_sc_hd__fill_1 abstract view
.subckt sky130_fd_sc_hd__fill_1 VGND VNB VPB VPWR
.ends

* Black-box entry subcircuit for sky130_fd_sc_hd__fill_2 abstract view
.subckt sky130_fd_sc_hd__fill_2 VGND VNB VPB VPWR
.ends

* Black-box entry subcircuit for sky130_fd_sc_hd__decap_8 abstract view
.subckt sky130_fd_sc_hd__decap_8 VGND VNB VPB VPWR
.ends

* Black-box entry subcircuit for sky130_fd_sc_hd__mux2_1 abstract view
.subckt sky130_fd_sc_hd__mux2_1 A0 A1 S VGND VNB VPB VPWR X
.ends

* Black-box entry subcircuit for sky130_fd_sc_hd__decap_3 abstract view
.subckt sky130_fd_sc_hd__decap_3 VGND VNB VPB VPWR
.ends

* Black-box entry subcircuit for sky130_fd_sc_hd__clkbuf_1 abstract view
.subckt sky130_fd_sc_hd__clkbuf_1 A VGND VNB VPB VPWR X
.ends

* Black-box entry subcircuit for sky130_fd_sc_hd__dfrtp_1 abstract view
.subckt sky130_fd_sc_hd__dfrtp_1 CLK D RESET_B VGND VNB VPB VPWR Q
.ends

* Black-box entry subcircuit for sky130_fd_sc_hd__clkbuf_2 abstract view
.subckt sky130_fd_sc_hd__clkbuf_2 A VGND VNB VPB VPWR X
.ends

* Black-box entry subcircuit for sky130_fd_sc_hd__diode_2 abstract view
.subckt sky130_fd_sc_hd__diode_2 DIODE VGND VNB VPB VPWR
.ends

* Black-box entry subcircuit for sky130_fd_sc_hd__buf_12 abstract view
.subckt sky130_fd_sc_hd__buf_12 A VGND VNB VPB VPWR X
.ends

* Black-box entry subcircuit for sky130_fd_sc_hd__conb_1 abstract view
.subckt sky130_fd_sc_hd__conb_1 VGND VNB VPB VPWR HI LO
.ends

* Black-box entry subcircuit for sky130_fd_sc_hd__dfrtp_4 abstract view
.subckt sky130_fd_sc_hd__dfrtp_4 CLK D RESET_B VGND VNB VPB VPWR Q
.ends

* Black-box entry subcircuit for sky130_fd_sc_hd__dlymetal6s2s_1 abstract view
.subckt sky130_fd_sc_hd__dlymetal6s2s_1 A VGND VNB VPB VPWR X
.ends

* Black-box entry subcircuit for sky130_fd_sc_hd__clkbuf_16 abstract view
.subckt sky130_fd_sc_hd__clkbuf_16 A VGND VNB VPB VPWR X
.ends

* Black-box entry subcircuit for sky130_fd_sc_hd__buf_2 abstract view
.subckt sky130_fd_sc_hd__buf_2 A VGND VNB VPB VPWR X
.ends

.subckt bottom_left_tile VGND VPWR ccff_head ccff_tail chanx_right_in[0] chanx_right_in[10]
+ chanx_right_in[11] chanx_right_in[12] chanx_right_in[13] chanx_right_in[14] chanx_right_in[15]
+ chanx_right_in[16] chanx_right_in[17] chanx_right_in[18] chanx_right_in[19] chanx_right_in[1]
+ chanx_right_in[20] chanx_right_in[21] chanx_right_in[22] chanx_right_in[23] chanx_right_in[24]
+ chanx_right_in[25] chanx_right_in[26] chanx_right_in[27] chanx_right_in[28] chanx_right_in[29]
+ chanx_right_in[2] chanx_right_in[3] chanx_right_in[4] chanx_right_in[5] chanx_right_in[6]
+ chanx_right_in[7] chanx_right_in[8] chanx_right_in[9] chanx_right_out[0] chanx_right_out[10]
+ chanx_right_out[11] chanx_right_out[12] chanx_right_out[13] chanx_right_out[14]
+ chanx_right_out[15] chanx_right_out[16] chanx_right_out[17] chanx_right_out[18]
+ chanx_right_out[19] chanx_right_out[1] chanx_right_out[20] chanx_right_out[21] chanx_right_out[22]
+ chanx_right_out[23] chanx_right_out[24] chanx_right_out[25] chanx_right_out[26]
+ chanx_right_out[27] chanx_right_out[28] chanx_right_out[29] chanx_right_out[2] chanx_right_out[3]
+ chanx_right_out[4] chanx_right_out[5] chanx_right_out[6] chanx_right_out[7] chanx_right_out[8]
+ chanx_right_out[9] chany_top_in[0] chany_top_in[10] chany_top_in[11] chany_top_in[12]
+ chany_top_in[13] chany_top_in[14] chany_top_in[15] chany_top_in[16] chany_top_in[17]
+ chany_top_in[18] chany_top_in[19] chany_top_in[1] chany_top_in[20] chany_top_in[21]
+ chany_top_in[22] chany_top_in[23] chany_top_in[24] chany_top_in[25] chany_top_in[26]
+ chany_top_in[27] chany_top_in[28] chany_top_in[29] chany_top_in[2] chany_top_in[3]
+ chany_top_in[4] chany_top_in[5] chany_top_in[6] chany_top_in[7] chany_top_in[8]
+ chany_top_in[9] chany_top_out[0] chany_top_out[10] chany_top_out[11] chany_top_out[12]
+ chany_top_out[13] chany_top_out[14] chany_top_out[15] chany_top_out[16] chany_top_out[17]
+ chany_top_out[18] chany_top_out[19] chany_top_out[1] chany_top_out[20] chany_top_out[21]
+ chany_top_out[22] chany_top_out[23] chany_top_out[24] chany_top_out[25] chany_top_out[26]
+ chany_top_out[27] chany_top_out[28] chany_top_out[29] chany_top_out[2] chany_top_out[3]
+ chany_top_out[4] chany_top_out[5] chany_top_out[6] chany_top_out[7] chany_top_out[8]
+ chany_top_out[9] prog_clk prog_reset_top_in reset_top_in right_bottom_grid_top_width_0_height_0_subtile_0__pin_inpad_0_
+ right_bottom_grid_top_width_0_height_0_subtile_1__pin_inpad_0_ right_bottom_grid_top_width_0_height_0_subtile_2__pin_inpad_0_
+ right_bottom_grid_top_width_0_height_0_subtile_3__pin_inpad_0_ test_enable_top_in
+ top_left_grid_right_width_0_height_0_subtile_0__pin_inpad_0_ top_left_grid_right_width_0_height_0_subtile_1__pin_inpad_0_
+ top_left_grid_right_width_0_height_0_subtile_2__pin_inpad_0_ top_left_grid_right_width_0_height_0_subtile_3__pin_inpad_0_
XTAP_199 VGND VPWR sky130_fd_sc_hd__tapvpwrvgnd_1
XFILLER_27_417 VGND VGND VPWR VPWR sky130_ef_sc_hd__decap_12
XFILLER_94_372 VGND VGND VPWR VPWR sky130_fd_sc_hd__decap_4
XFILLER_82_523 VGND VGND VPWR VPWR sky130_fd_sc_hd__decap_4
XFILLER_35_461 VGND VGND VPWR VPWR sky130_ef_sc_hd__decap_12
XFILLER_22_133 VGND VGND VPWR VPWR sky130_fd_sc_hd__decap_6
XFILLER_52_29 VGND VGND VPWR VPWR sky130_ef_sc_hd__decap_12
XFILLER_50_475 VGND VGND VPWR VPWR sky130_fd_sc_hd__fill_1
XFILLER_22_177 VGND VGND VPWR VPWR sky130_ef_sc_hd__decap_12
XFILLER_89_111 VGND VGND VPWR VPWR sky130_fd_sc_hd__fill_1
XFILLER_77_15 VGND VGND VPWR VPWR sky130_ef_sc_hd__decap_12
XFILLER_77_317 VGND VGND VPWR VPWR sky130_fd_sc_hd__fill_2
XFILLER_58_520 VGND VGND VPWR VPWR sky130_fd_sc_hd__decap_6
XFILLER_92_309 VGND VGND VPWR VPWR sky130_fd_sc_hd__decap_8
XFILLER_45_225 VGND VGND VPWR VPWR sky130_ef_sc_hd__decap_12
XFILLER_93_69 VGND VGND VPWR VPWR sky130_fd_sc_hd__decap_4
XFILLER_26_41 VGND VGND VPWR VPWR sky130_ef_sc_hd__decap_12
XFILLER_13_111 VGND VGND VPWR VPWR sky130_fd_sc_hd__fill_1
XFILLER_26_85 VGND VGND VPWR VPWR sky130_ef_sc_hd__decap_12
XFILLER_41_475 VGND VGND VPWR VPWR sky130_ef_sc_hd__decap_12
XFILLER_9_137 VGND VGND VPWR VPWR sky130_ef_sc_hd__decap_12
Xsb_0__0_.mux_top_track_0.mux_l1_in_1_ net141 net22 sb_0__0_.mem_top_track_0.mem_out\[0\]
+ VGND VGND VPWR VPWR sb_0__0_.mux_top_track_0.sky130_fd_sc_hd__mux2_1_1_X sky130_fd_sc_hd__mux2_1
XFILLER_49_520 VGND VGND VPWR VPWR sky130_fd_sc_hd__decap_6
XFILLER_95_169 VGND VGND VPWR VPWR sky130_fd_sc_hd__decap_8
XFILLER_64_501 VGND VGND VPWR VPWR sky130_ef_sc_hd__decap_12
XFILLER_67_81 VGND VGND VPWR VPWR sky130_ef_sc_hd__decap_12
XFILLER_36_247 VGND VGND VPWR VPWR sky130_fd_sc_hd__decap_4
XFILLER_17_461 VGND VGND VPWR VPWR sky130_ef_sc_hd__decap_12
XFILLER_51_217 VGND VGND VPWR VPWR sky130_fd_sc_hd__decap_6
XFILLER_32_475 VGND VGND VPWR VPWR sky130_fd_sc_hd__fill_1
XFILLER_59_317 VGND VGND VPWR VPWR sky130_ef_sc_hd__decap_12
XFILLER_74_309 VGND VGND VPWR VPWR sky130_fd_sc_hd__decap_4
XFILLER_27_225 VGND VGND VPWR VPWR sky130_ef_sc_hd__decap_12
XFILLER_63_39 VGND VGND VPWR VPWR sky130_ef_sc_hd__decap_12
XFILLER_23_497 VGND VGND VPWR VPWR sky130_fd_sc_hd__decap_6
XFILLER_12_65 VGND VGND VPWR VPWR sky130_ef_sc_hd__decap_12
XFILLER_2_357 VGND VGND VPWR VPWR sky130_fd_sc_hd__decap_6
XFILLER_77_125 VGND VGND VPWR VPWR sky130_ef_sc_hd__decap_12
XFILLER_46_501 VGND VGND VPWR VPWR sky130_fd_sc_hd__decap_3
XFILLER_77_169 VGND VGND VPWR VPWR sky130_ef_sc_hd__decap_12
XFILLER_92_139 VGND VGND VPWR VPWR sky130_fd_sc_hd__fill_1
XFILLER_92_117 VGND VGND VPWR VPWR sky130_ef_sc_hd__decap_12
XFILLER_37_51 VGND VGND VPWR VPWR sky130_fd_sc_hd__decap_4
XFILLER_33_217 VGND VGND VPWR VPWR sky130_fd_sc_hd__decap_6
XFILLER_14_475 VGND VGND VPWR VPWR sky130_fd_sc_hd__fill_1
XFILLER_41_261 VGND VGND VPWR VPWR sky130_ef_sc_hd__decap_12
XFILLER_56_309 VGND VGND VPWR VPWR sky130_ef_sc_hd__decap_12
XFILLER_37_523 VGND VGND VPWR VPWR sky130_fd_sc_hd__decap_4
XFILLER_49_361 VGND VGND VPWR VPWR sky130_ef_sc_hd__decap_12
XFILLER_20_401 VGND VGND VPWR VPWR sky130_ef_sc_hd__decap_12
XFILLER_20_445 VGND VGND VPWR VPWR sky130_ef_sc_hd__decap_12
XFILLER_20_489 VGND VGND VPWR VPWR sky130_ef_sc_hd__decap_12
XFILLER_59_125 VGND VGND VPWR VPWR sky130_ef_sc_hd__decap_12
XFILLER_87_478 VGND VGND VPWR VPWR sky130_fd_sc_hd__decap_4
XFILLER_59_169 VGND VGND VPWR VPWR sky130_ef_sc_hd__decap_12
XFILLER_28_501 VGND VGND VPWR VPWR sky130_ef_sc_hd__decap_12
XFILLER_74_139 VGND VGND VPWR VPWR sky130_fd_sc_hd__fill_1
XFILLER_74_27 VGND VGND VPWR VPWR sky130_fd_sc_hd__fill_1
XFILLER_15_217 VGND VGND VPWR VPWR sky130_fd_sc_hd__decap_6
XFILLER_70_301 VGND VGND VPWR VPWR sky130_fd_sc_hd__decap_6
XFILLER_90_15 VGND VGND VPWR VPWR sky130_ef_sc_hd__decap_12
XFILLER_30_209 VGND VGND VPWR VPWR sky130_ef_sc_hd__decap_12
XFILLER_23_261 VGND VGND VPWR VPWR sky130_ef_sc_hd__decap_12
X_131_ sb_0__0_.mux_top_track_0.out VGND VGND VPWR VPWR net123 sky130_fd_sc_hd__clkbuf_1
XFILLER_7_405 VGND VGND VPWR VPWR sky130_ef_sc_hd__decap_12
XFILLER_7_449 VGND VGND VPWR VPWR sky130_ef_sc_hd__decap_12
Xsb_0__0_.mem_top_track_34.sky130_fd_sc_hd__dfrtp_1_0_ clknet_3_2__leaf_prog_clk sb_0__0_.mem_top_track_32.ccff_tail
+ net62 VGND VGND VPWR VPWR sb_0__0_.mem_top_track_34.mem_out\[0\] sky130_fd_sc_hd__dfrtp_1
XFILLER_2_121 VGND VGND VPWR VPWR sky130_ef_sc_hd__decap_12
XFILLER_2_165 VGND VGND VPWR VPWR sky130_ef_sc_hd__decap_12
XFILLER_38_309 VGND VGND VPWR VPWR sky130_ef_sc_hd__decap_12
XFILLER_48_83 VGND VGND VPWR VPWR sky130_fd_sc_hd__fill_1
XFILLER_0_57 VGND VGND VPWR VPWR sky130_ef_sc_hd__decap_12
XFILLER_73_161 VGND VGND VPWR VPWR sky130_fd_sc_hd__decap_6
XFILLER_80_109 VGND VGND VPWR VPWR sky130_ef_sc_hd__decap_12
XFILLER_9_55 VGND VGND VPWR VPWR sky130_fd_sc_hd__fill_1
XFILLER_50_3 VGND VGND VPWR VPWR sky130_ef_sc_hd__decap_12
XFILLER_88_209 VGND VGND VPWR VPWR sky130_ef_sc_hd__decap_12
XFILLER_69_478 VGND VGND VPWR VPWR sky130_ef_sc_hd__decap_12
Xsb_0__0_.mux_right_track_10.mux_l2_in_0_ net160 sb_0__0_.mux_right_track_10.sky130_fd_sc_hd__mux2_1_0_X
+ sb_0__0_.mem_right_track_10.ccff_tail VGND VGND VPWR VPWR sb_0__0_.mux_right_track_10.sky130_fd_sc_hd__mux2_1_1_X
+ sky130_fd_sc_hd__mux2_1
XFILLER_84_415 VGND VGND VPWR VPWR sky130_fd_sc_hd__decap_4
XFILLER_56_139 VGND VGND VPWR VPWR sky130_fd_sc_hd__fill_1
XFILLER_52_301 VGND VGND VPWR VPWR sky130_fd_sc_hd__decap_6
XFILLER_12_209 VGND VGND VPWR VPWR sky130_ef_sc_hd__decap_12
XFILLER_52_345 VGND VGND VPWR VPWR sky130_ef_sc_hd__decap_12
XFILLER_52_389 VGND VGND VPWR VPWR sky130_ef_sc_hd__decap_12
XFILLER_20_253 VGND VGND VPWR VPWR sky130_ef_sc_hd__decap_12
XFILLER_60_29 VGND VGND VPWR VPWR sky130_ef_sc_hd__decap_12
XFILLER_4_419 VGND VGND VPWR VPWR sky130_fd_sc_hd__fill_1
XFILLER_69_27 VGND VGND VPWR VPWR sky130_ef_sc_hd__decap_12
XFILLER_75_404 VGND VGND VPWR VPWR sky130_ef_sc_hd__decap_12
XFILLER_85_15 VGND VGND VPWR VPWR sky130_ef_sc_hd__decap_12
XFILLER_18_53 VGND VGND VPWR VPWR sky130_ef_sc_hd__decap_12
XFILLER_55_161 VGND VGND VPWR VPWR sky130_fd_sc_hd__decap_6
XFILLER_62_109 VGND VGND VPWR VPWR sky130_ef_sc_hd__decap_12
XFILLER_18_97 VGND VGND VPWR VPWR sky130_ef_sc_hd__decap_12
XFILLER_70_153 VGND VGND VPWR VPWR sky130_ef_sc_hd__decap_12
XFILLER_34_41 VGND VGND VPWR VPWR sky130_ef_sc_hd__decap_12
XFILLER_34_85 VGND VGND VPWR VPWR sky130_ef_sc_hd__decap_12
XFILLER_70_197 VGND VGND VPWR VPWR sky130_ef_sc_hd__decap_12
X_114_ sb_0__0_.mux_top_track_34.out VGND VGND VPWR VPWR net105 sky130_fd_sc_hd__clkbuf_2
XFILLER_7_279 VGND VGND VPWR VPWR sky130_fd_sc_hd__fill_1
XFILLER_3_441 VGND VGND VPWR VPWR sky130_fd_sc_hd__decap_6
XTAP_507 VGND VPWR sky130_fd_sc_hd__tapvpwrvgnd_1
XFILLER_3_485 VGND VGND VPWR VPWR sky130_ef_sc_hd__decap_12
XTAP_518 VGND VPWR sky130_fd_sc_hd__tapvpwrvgnd_1
XTAP_529 VGND VPWR sky130_fd_sc_hd__tapvpwrvgnd_1
XFILLER_59_93 VGND VGND VPWR VPWR sky130_ef_sc_hd__decap_12
XFILLER_78_253 VGND VGND VPWR VPWR sky130_ef_sc_hd__decap_12
XFILLER_93_223 VGND VGND VPWR VPWR sky130_fd_sc_hd__fill_1
XFILLER_38_139 VGND VGND VPWR VPWR sky130_fd_sc_hd__fill_1
XFILLER_75_81 VGND VGND VPWR VPWR sky130_ef_sc_hd__decap_12
XFILLER_34_301 VGND VGND VPWR VPWR sky130_fd_sc_hd__decap_6
XFILLER_34_345 VGND VGND VPWR VPWR sky130_ef_sc_hd__decap_12
XFILLER_34_389 VGND VGND VPWR VPWR sky130_ef_sc_hd__decap_12
Xsb_0__0_.mux_right_track_2.mux_l1_in_0_ net64 net53 sb_0__0_.mem_right_track_2.mem_out\[0\]
+ VGND VGND VPWR VPWR sb_0__0_.mux_right_track_2.sky130_fd_sc_hd__mux2_1_0_X sky130_fd_sc_hd__mux2_1
XFILLER_44_109 VGND VGND VPWR VPWR sky130_ef_sc_hd__decap_12
XFILLER_37_161 VGND VGND VPWR VPWR sky130_fd_sc_hd__decap_6
XFILLER_52_153 VGND VGND VPWR VPWR sky130_ef_sc_hd__decap_12
XFILLER_80_440 VGND VGND VPWR VPWR sky130_fd_sc_hd__fill_2
XFILLER_80_462 VGND VGND VPWR VPWR sky130_fd_sc_hd__decap_8
XFILLER_52_197 VGND VGND VPWR VPWR sky130_ef_sc_hd__decap_12
XFILLER_71_39 VGND VGND VPWR VPWR sky130_ef_sc_hd__decap_12
XFILLER_20_65 VGND VGND VPWR VPWR sky130_ef_sc_hd__decap_12
XFILLER_0_433 VGND VGND VPWR VPWR sky130_ef_sc_hd__decap_12
XFILLER_0_477 VGND VGND VPWR VPWR sky130_ef_sc_hd__decap_12
XFILLER_75_223 VGND VGND VPWR VPWR sky130_fd_sc_hd__fill_1
XFILLER_16_301 VGND VGND VPWR VPWR sky130_fd_sc_hd__decap_6
XFILLER_16_345 VGND VGND VPWR VPWR sky130_ef_sc_hd__decap_12
XFILLER_45_51 VGND VGND VPWR VPWR sky130_fd_sc_hd__decap_4
XFILLER_71_440 VGND VGND VPWR VPWR sky130_fd_sc_hd__decap_8
XFILLER_16_389 VGND VGND VPWR VPWR sky130_ef_sc_hd__decap_12
XFILLER_71_462 VGND VGND VPWR VPWR sky130_fd_sc_hd__fill_2
XFILLER_71_473 VGND VGND VPWR VPWR sky130_ef_sc_hd__decap_12
XFILLER_31_337 VGND VGND VPWR VPWR sky130_ef_sc_hd__decap_12
XFILLER_84_9 VGND VGND VPWR VPWR sky130_ef_sc_hd__decap_12
XANTENNA_5 net34 VGND VGND VPWR VPWR sky130_fd_sc_hd__diode_2
XTAP_315 VGND VPWR sky130_fd_sc_hd__tapvpwrvgnd_1
XTAP_304 VGND VPWR sky130_fd_sc_hd__tapvpwrvgnd_1
XTAP_348 VGND VPWR sky130_fd_sc_hd__tapvpwrvgnd_1
XTAP_337 VGND VPWR sky130_fd_sc_hd__tapvpwrvgnd_1
XTAP_326 VGND VPWR sky130_fd_sc_hd__tapvpwrvgnd_1
XFILLER_3_293 VGND VGND VPWR VPWR sky130_ef_sc_hd__decap_12
XTAP_359 VGND VPWR sky130_fd_sc_hd__tapvpwrvgnd_1
XFILLER_13_3 VGND VGND VPWR VPWR sky130_ef_sc_hd__decap_12
XFILLER_66_245 VGND VGND VPWR VPWR sky130_fd_sc_hd__decap_6
XFILLER_26_109 VGND VGND VPWR VPWR sky130_ef_sc_hd__decap_12
XFILLER_19_161 VGND VGND VPWR VPWR sky130_fd_sc_hd__decap_6
XFILLER_66_289 VGND VGND VPWR VPWR sky130_ef_sc_hd__decap_12
XFILLER_81_237 VGND VGND VPWR VPWR sky130_ef_sc_hd__decap_12
XFILLER_34_153 VGND VGND VPWR VPWR sky130_ef_sc_hd__decap_12
XFILLER_34_197 VGND VGND VPWR VPWR sky130_ef_sc_hd__decap_12
XFILLER_89_337 VGND VGND VPWR VPWR sky130_ef_sc_hd__decap_12
Xsb_0__0_.mux_right_track_4.sky130_fd_sc_hd__buf_4_0_ sb_0__0_.mux_right_track_4.sky130_fd_sc_hd__mux2_1_1_X
+ VGND VGND VPWR VPWR sb_0__0_.mux_right_track_4.out sky130_fd_sc_hd__clkbuf_1
XTAP_860 VGND VPWR sky130_fd_sc_hd__tapvpwrvgnd_1
XTAP_871 VGND VPWR sky130_fd_sc_hd__tapvpwrvgnd_1
XFILLER_57_223 VGND VGND VPWR VPWR sky130_fd_sc_hd__fill_1
XTAP_882 VGND VPWR sky130_fd_sc_hd__tapvpwrvgnd_1
XTAP_893 VGND VPWR sky130_fd_sc_hd__tapvpwrvgnd_1
Xsb_0__0_.mux_top_track_12.mux_l2_in_0_ net143 sb_0__0_.mux_top_track_12.sky130_fd_sc_hd__mux2_1_0_X
+ sb_0__0_.mem_top_track_12.ccff_tail VGND VGND VPWR VPWR sb_0__0_.mux_top_track_12.sky130_fd_sc_hd__mux2_1_1_X
+ sky130_fd_sc_hd__mux2_1
XFILLER_45_429 VGND VGND VPWR VPWR sky130_ef_sc_hd__decap_12
XFILLER_82_27 VGND VGND VPWR VPWR sky130_fd_sc_hd__fill_1
XFILLER_53_484 VGND VGND VPWR VPWR sky130_ef_sc_hd__decap_12
XFILLER_13_337 VGND VGND VPWR VPWR sky130_ef_sc_hd__decap_12
XFILLER_40_189 VGND VGND VPWR VPWR sky130_fd_sc_hd__decap_6
XFILLER_5_503 VGND VGND VPWR VPWR sky130_fd_sc_hd__fill_1
XFILLER_5_525 VGND VGND VPWR VPWR sky130_fd_sc_hd__fill_2
Xoutput75 net75 VGND VGND VPWR VPWR chanx_right_out[12] sky130_fd_sc_hd__buf_12
Xoutput97 net97 VGND VGND VPWR VPWR chanx_right_out[5] sky130_fd_sc_hd__buf_12
Xoutput86 net86 VGND VGND VPWR VPWR chanx_right_out[22] sky130_fd_sc_hd__buf_12
XFILLER_48_245 VGND VGND VPWR VPWR sky130_fd_sc_hd__decap_6
XFILLER_48_289 VGND VGND VPWR VPWR sky130_ef_sc_hd__decap_12
XFILLER_56_83 VGND VGND VPWR VPWR sky130_fd_sc_hd__fill_1
XFILLER_63_237 VGND VGND VPWR VPWR sky130_ef_sc_hd__decap_12
XFILLER_16_153 VGND VGND VPWR VPWR sky130_ef_sc_hd__decap_12
XFILLER_16_197 VGND VGND VPWR VPWR sky130_ef_sc_hd__decap_12
XFILLER_71_281 VGND VGND VPWR VPWR sky130_ef_sc_hd__decap_12
XFILLER_31_167 VGND VGND VPWR VPWR sky130_fd_sc_hd__fill_1
XPHY_170 VGND VGND VPWR VPWR sky130_fd_sc_hd__decap_3
XPHY_181 VGND VGND VPWR VPWR sky130_fd_sc_hd__decap_3
XFILLER_8_363 VGND VGND VPWR VPWR sky130_fd_sc_hd__fill_1
XFILLER_67_510 VGND VGND VPWR VPWR sky130_ef_sc_hd__decap_12
XFILLER_86_307 VGND VGND VPWR VPWR sky130_fd_sc_hd__fill_1
XFILLER_39_223 VGND VGND VPWR VPWR sky130_fd_sc_hd__fill_1
XFILLER_27_429 VGND VGND VPWR VPWR sky130_ef_sc_hd__decap_12
XFILLER_35_473 VGND VGND VPWR VPWR sky130_ef_sc_hd__decap_12
Xsb_0__0_.mem_right_track_44.sky130_fd_sc_hd__dfrtp_1_1_ clknet_3_4__leaf_prog_clk
+ sb_0__0_.mem_right_track_44.mem_out\[0\] net62 VGND VGND VPWR VPWR sb_0__0_.mem_right_track_44.ccff_tail
+ sky130_fd_sc_hd__dfrtp_1
XFILLER_50_421 VGND VGND VPWR VPWR sky130_ef_sc_hd__decap_12
XFILLER_10_307 VGND VGND VPWR VPWR sky130_fd_sc_hd__fill_1
XFILLER_22_189 VGND VGND VPWR VPWR sky130_fd_sc_hd__decap_6
XFILLER_77_27 VGND VGND VPWR VPWR sky130_ef_sc_hd__decap_12
XFILLER_89_167 VGND VGND VPWR VPWR sky130_fd_sc_hd__fill_1
XTAP_690 VGND VPWR sky130_fd_sc_hd__tapvpwrvgnd_1
XFILLER_93_37 VGND VGND VPWR VPWR sky130_fd_sc_hd__fill_1
XFILLER_45_237 VGND VGND VPWR VPWR sky130_ef_sc_hd__decap_12
XFILLER_26_53 VGND VGND VPWR VPWR sky130_ef_sc_hd__decap_12
XFILLER_26_97 VGND VGND VPWR VPWR sky130_ef_sc_hd__decap_12
XFILLER_53_281 VGND VGND VPWR VPWR sky130_ef_sc_hd__decap_12
XFILLER_13_167 VGND VGND VPWR VPWR sky130_fd_sc_hd__fill_1
XFILLER_9_105 VGND VGND VPWR VPWR sky130_fd_sc_hd__decap_6
XFILLER_9_149 VGND VGND VPWR VPWR sky130_ef_sc_hd__decap_12
XFILLER_41_487 VGND VGND VPWR VPWR sky130_ef_sc_hd__decap_12
XFILLER_42_41 VGND VGND VPWR VPWR sky130_ef_sc_hd__decap_12
XFILLER_42_85 VGND VGND VPWR VPWR sky130_ef_sc_hd__decap_12
Xsb_0__0_.mux_top_track_0.mux_l1_in_0_ net70 net67 sb_0__0_.mem_top_track_0.mem_out\[0\]
+ VGND VGND VPWR VPWR sb_0__0_.mux_top_track_0.sky130_fd_sc_hd__mux2_1_0_X sky130_fd_sc_hd__mux2_1
XFILLER_68_307 VGND VGND VPWR VPWR sky130_fd_sc_hd__fill_1
XFILLER_3_57 VGND VGND VPWR VPWR sky130_ef_sc_hd__decap_12
XFILLER_67_93 VGND VGND VPWR VPWR sky130_ef_sc_hd__decap_12
XFILLER_91_321 VGND VGND VPWR VPWR sky130_fd_sc_hd__decap_4
XFILLER_64_513 VGND VGND VPWR VPWR sky130_ef_sc_hd__decap_12
XFILLER_17_473 VGND VGND VPWR VPWR sky130_ef_sc_hd__decap_12
XFILLER_32_421 VGND VGND VPWR VPWR sky130_ef_sc_hd__decap_12
XFILLER_83_81 VGND VGND VPWR VPWR sky130_ef_sc_hd__decap_12
Xsb_0__0_.mux_right_track_10.sky130_fd_sc_hd__buf_4_0_ sb_0__0_.mux_right_track_10.sky130_fd_sc_hd__mux2_1_1_X
+ VGND VGND VPWR VPWR sb_0__0_.mux_right_track_10.out sky130_fd_sc_hd__clkbuf_1
XFILLER_80_3 VGND VGND VPWR VPWR sky130_ef_sc_hd__decap_12
XFILLER_59_329 VGND VGND VPWR VPWR sky130_fd_sc_hd__decap_6
XFILLER_27_237 VGND VGND VPWR VPWR sky130_ef_sc_hd__decap_12
XFILLER_82_321 VGND VGND VPWR VPWR sky130_ef_sc_hd__decap_12
XFILLER_82_365 VGND VGND VPWR VPWR sky130_fd_sc_hd__fill_2
XFILLER_82_387 VGND VGND VPWR VPWR sky130_fd_sc_hd__decap_4
XFILLER_35_281 VGND VGND VPWR VPWR sky130_ef_sc_hd__decap_12
XFILLER_50_251 VGND VGND VPWR VPWR sky130_fd_sc_hd__fill_1
XFILLER_12_77 VGND VGND VPWR VPWR sky130_fd_sc_hd__decap_6
XFILLER_88_15 VGND VGND VPWR VPWR sky130_ef_sc_hd__decap_12
XFILLER_77_137 VGND VGND VPWR VPWR sky130_ef_sc_hd__decap_12
XFILLER_92_129 VGND VGND VPWR VPWR sky130_fd_sc_hd__fill_2
XFILLER_46_524 VGND VGND VPWR VPWR sky130_fd_sc_hd__decap_3
XFILLER_85_181 VGND VGND VPWR VPWR sky130_ef_sc_hd__decap_12
XFILLER_61_505 VGND VGND VPWR VPWR sky130_ef_sc_hd__decap_12
XFILLER_14_421 VGND VGND VPWR VPWR sky130_ef_sc_hd__decap_12
XFILLER_53_51 VGND VGND VPWR VPWR sky130_fd_sc_hd__decap_4
XFILLER_41_273 VGND VGND VPWR VPWR sky130_fd_sc_hd__decap_6
XFILLER_1_391 VGND VGND VPWR VPWR sky130_fd_sc_hd__fill_1
XFILLER_49_373 VGND VGND VPWR VPWR sky130_ef_sc_hd__decap_12
XFILLER_64_321 VGND VGND VPWR VPWR sky130_ef_sc_hd__decap_12
XFILLER_91_140 VGND VGND VPWR VPWR sky130_fd_sc_hd__decap_4
XFILLER_64_365 VGND VGND VPWR VPWR sky130_fd_sc_hd__fill_2
XFILLER_17_281 VGND VGND VPWR VPWR sky130_ef_sc_hd__decap_12
XFILLER_64_387 VGND VGND VPWR VPWR sky130_ef_sc_hd__decap_12
XFILLER_20_413 VGND VGND VPWR VPWR sky130_fd_sc_hd__decap_6
XFILLER_32_251 VGND VGND VPWR VPWR sky130_fd_sc_hd__fill_1
XFILLER_20_457 VGND VGND VPWR VPWR sky130_ef_sc_hd__decap_12
XFILLER_58_29 VGND VGND VPWR VPWR sky130_ef_sc_hd__decap_12
XFILLER_87_446 VGND VGND VPWR VPWR sky130_fd_sc_hd__fill_2
XFILLER_59_137 VGND VGND VPWR VPWR sky130_ef_sc_hd__decap_12
XFILLER_87_468 VGND VGND VPWR VPWR sky130_fd_sc_hd__fill_1
XFILLER_28_513 VGND VGND VPWR VPWR sky130_ef_sc_hd__decap_12
XFILLER_67_181 VGND VGND VPWR VPWR sky130_ef_sc_hd__decap_12
XFILLER_43_505 VGND VGND VPWR VPWR sky130_ef_sc_hd__decap_12
XFILLER_82_195 VGND VGND VPWR VPWR sky130_fd_sc_hd__fill_1
XFILLER_90_27 VGND VGND VPWR VPWR sky130_fd_sc_hd__fill_1
XFILLER_23_273 VGND VGND VPWR VPWR sky130_fd_sc_hd__decap_6
X_130_ sb_0__0_.mux_top_track_2.out VGND VGND VPWR VPWR net122 sky130_fd_sc_hd__clkbuf_1
XFILLER_7_417 VGND VGND VPWR VPWR sky130_ef_sc_hd__decap_12
XFILLER_2_133 VGND VGND VPWR VPWR sky130_fd_sc_hd__decap_6
XFILLER_2_177 VGND VGND VPWR VPWR sky130_ef_sc_hd__decap_12
XFILLER_78_413 VGND VGND VPWR VPWR sky130_fd_sc_hd__decap_6
XFILLER_93_405 VGND VGND VPWR VPWR sky130_ef_sc_hd__decap_12
XFILLER_93_449 VGND VGND VPWR VPWR sky130_ef_sc_hd__decap_12
XFILLER_46_321 VGND VGND VPWR VPWR sky130_ef_sc_hd__decap_12
XFILLER_0_69 VGND VGND VPWR VPWR sky130_ef_sc_hd__decap_12
XFILLER_46_365 VGND VGND VPWR VPWR sky130_ef_sc_hd__decap_12
XFILLER_61_335 VGND VGND VPWR VPWR sky130_fd_sc_hd__fill_1
XFILLER_64_83 VGND VGND VPWR VPWR sky130_fd_sc_hd__fill_1
XFILLER_14_251 VGND VGND VPWR VPWR sky130_fd_sc_hd__fill_1
XFILLER_43_3 VGND VGND VPWR VPWR sky130_ef_sc_hd__decap_12
XFILLER_69_446 VGND VGND VPWR VPWR sky130_fd_sc_hd__fill_2
XFILLER_49_181 VGND VGND VPWR VPWR sky130_ef_sc_hd__decap_12
XFILLER_25_505 VGND VGND VPWR VPWR sky130_ef_sc_hd__decap_12
XFILLER_64_195 VGND VGND VPWR VPWR sky130_fd_sc_hd__fill_1
XFILLER_40_508 VGND VGND VPWR VPWR sky130_ef_sc_hd__decap_12
XFILLER_52_357 VGND VGND VPWR VPWR sky130_fd_sc_hd__decap_6
XFILLER_20_221 VGND VGND VPWR VPWR sky130_ef_sc_hd__decap_12
XFILLER_20_265 VGND VGND VPWR VPWR sky130_ef_sc_hd__decap_12
XFILLER_69_39 VGND VGND VPWR VPWR sky130_ef_sc_hd__decap_12
XFILLER_75_416 VGND VGND VPWR VPWR sky130_fd_sc_hd__decap_6
XFILLER_85_27 VGND VGND VPWR VPWR sky130_ef_sc_hd__decap_12
XFILLER_28_321 VGND VGND VPWR VPWR sky130_ef_sc_hd__decap_12
XFILLER_75_449 VGND VGND VPWR VPWR sky130_fd_sc_hd__fill_2
XFILLER_18_65 VGND VGND VPWR VPWR sky130_ef_sc_hd__decap_12
XFILLER_28_365 VGND VGND VPWR VPWR sky130_ef_sc_hd__decap_12
XFILLER_83_460 VGND VGND VPWR VPWR sky130_fd_sc_hd__decap_8
XFILLER_43_335 VGND VGND VPWR VPWR sky130_fd_sc_hd__fill_1
XFILLER_70_121 VGND VGND VPWR VPWR sky130_ef_sc_hd__decap_12
XFILLER_34_53 VGND VGND VPWR VPWR sky130_ef_sc_hd__decap_12
XFILLER_70_165 VGND VGND VPWR VPWR sky130_ef_sc_hd__decap_12
XFILLER_34_97 VGND VGND VPWR VPWR sky130_ef_sc_hd__decap_12
XFILLER_7_225 VGND VGND VPWR VPWR sky130_ef_sc_hd__decap_12
XFILLER_50_41 VGND VGND VPWR VPWR sky130_ef_sc_hd__decap_12
X_113_ net3 VGND VGND VPWR VPWR net104 sky130_fd_sc_hd__clkbuf_2
XFILLER_50_85 VGND VGND VPWR VPWR sky130_ef_sc_hd__decap_12
XFILLER_3_497 VGND VGND VPWR VPWR sky130_fd_sc_hd__decap_6
XTAP_508 VGND VPWR sky130_fd_sc_hd__tapvpwrvgnd_1
XTAP_519 VGND VPWR sky130_fd_sc_hd__tapvpwrvgnd_1
XFILLER_78_221 VGND VGND VPWR VPWR sky130_ef_sc_hd__decap_12
XFILLER_78_265 VGND VGND VPWR VPWR sky130_ef_sc_hd__decap_12
XFILLER_59_490 VGND VGND VPWR VPWR sky130_ef_sc_hd__decap_12
XFILLER_74_482 VGND VGND VPWR VPWR sky130_ef_sc_hd__decap_12
XFILLER_75_93 VGND VGND VPWR VPWR sky130_ef_sc_hd__decap_12
XFILLER_34_357 VGND VGND VPWR VPWR sky130_fd_sc_hd__decap_6
XFILLER_46_195 VGND VGND VPWR VPWR sky130_fd_sc_hd__fill_1
XFILLER_91_81 VGND VGND VPWR VPWR sky130_ef_sc_hd__decap_12
XFILLER_57_405 VGND VGND VPWR VPWR sky130_ef_sc_hd__decap_12
XFILLER_57_449 VGND VGND VPWR VPWR sky130_ef_sc_hd__decap_12
XFILLER_84_224 VGND VGND VPWR VPWR sky130_ef_sc_hd__decap_12
XFILLER_25_335 VGND VGND VPWR VPWR sky130_fd_sc_hd__fill_1
XFILLER_52_121 VGND VGND VPWR VPWR sky130_ef_sc_hd__decap_12
XFILLER_52_165 VGND VGND VPWR VPWR sky130_ef_sc_hd__decap_12
XFILLER_80_474 VGND VGND VPWR VPWR sky130_fd_sc_hd__fill_2
XFILLER_20_77 VGND VGND VPWR VPWR sky130_fd_sc_hd__decap_6
XFILLER_0_445 VGND VGND VPWR VPWR sky130_fd_sc_hd__decap_3
XFILLER_0_489 VGND VGND VPWR VPWR sky130_ef_sc_hd__decap_12
XFILLER_75_279 VGND VGND VPWR VPWR sky130_fd_sc_hd__fill_1
XFILLER_56_493 VGND VGND VPWR VPWR sky130_fd_sc_hd__fill_1
XFILLER_16_357 VGND VGND VPWR VPWR sky130_fd_sc_hd__decap_6
XFILLER_28_195 VGND VGND VPWR VPWR sky130_fd_sc_hd__fill_1
XFILLER_31_305 VGND VGND VPWR VPWR sky130_ef_sc_hd__decap_12
XFILLER_71_485 VGND VGND VPWR VPWR sky130_ef_sc_hd__decap_12
Xsb_0__0_.mux_top_track_44.mux_l2_in_0__153 VGND VGND VPWR VPWR sb_0__0_.mux_top_track_44.mux_l2_in_0__153/HI
+ net153 sky130_fd_sc_hd__conb_1
XFILLER_31_349 VGND VGND VPWR VPWR sky130_ef_sc_hd__decap_12
XFILLER_8_501 VGND VGND VPWR VPWR sky130_fd_sc_hd__decap_8
XFILLER_61_51 VGND VGND VPWR VPWR sky130_fd_sc_hd__decap_4
Xsb_0__0_.mux_right_track_10.mux_l1_in_0_ net65 net49 sb_0__0_.mem_right_track_10.mem_out\[0\]
+ VGND VGND VPWR VPWR sb_0__0_.mux_right_track_10.sky130_fd_sc_hd__mux2_1_0_X sky130_fd_sc_hd__mux2_1
XANTENNA_6 net57 VGND VGND VPWR VPWR sky130_fd_sc_hd__diode_2
XTAP_305 VGND VPWR sky130_fd_sc_hd__tapvpwrvgnd_1
XFILLER_3_261 VGND VGND VPWR VPWR sky130_ef_sc_hd__decap_12
XTAP_349 VGND VPWR sky130_fd_sc_hd__tapvpwrvgnd_1
XTAP_338 VGND VPWR sky130_fd_sc_hd__tapvpwrvgnd_1
XTAP_327 VGND VPWR sky130_fd_sc_hd__tapvpwrvgnd_1
XTAP_316 VGND VPWR sky130_fd_sc_hd__tapvpwrvgnd_1
XFILLER_94_511 VGND VGND VPWR VPWR sky130_fd_sc_hd__decap_4
XFILLER_39_405 VGND VGND VPWR VPWR sky130_ef_sc_hd__decap_12
XFILLER_39_449 VGND VGND VPWR VPWR sky130_ef_sc_hd__decap_12
XFILLER_54_419 VGND VGND VPWR VPWR sky130_fd_sc_hd__fill_1
XFILLER_81_205 VGND VGND VPWR VPWR sky130_ef_sc_hd__decap_12
XFILLER_34_121 VGND VGND VPWR VPWR sky130_ef_sc_hd__decap_12
XFILLER_81_249 VGND VGND VPWR VPWR sky130_ef_sc_hd__decap_12
XFILLER_34_165 VGND VGND VPWR VPWR sky130_ef_sc_hd__decap_12
Xsb_0__0_.mem_right_track_12.sky130_fd_sc_hd__dfrtp_1_1_ clknet_3_7__leaf_prog_clk
+ sb_0__0_.mem_right_track_12.mem_out\[0\] net62 VGND VGND VPWR VPWR sb_0__0_.mem_right_track_12.ccff_tail
+ sky130_fd_sc_hd__dfrtp_1
XFILLER_89_349 VGND VGND VPWR VPWR sky130_ef_sc_hd__decap_12
XTAP_850 VGND VPWR sky130_fd_sc_hd__tapvpwrvgnd_1
XTAP_861 VGND VPWR sky130_fd_sc_hd__tapvpwrvgnd_1
XFILLER_66_29 VGND VGND VPWR VPWR sky130_ef_sc_hd__decap_12
XTAP_872 VGND VPWR sky130_fd_sc_hd__tapvpwrvgnd_1
XTAP_883 VGND VPWR sky130_fd_sc_hd__tapvpwrvgnd_1
XTAP_894 VGND VPWR sky130_fd_sc_hd__tapvpwrvgnd_1
XFILLER_57_279 VGND VGND VPWR VPWR sky130_fd_sc_hd__fill_1
XFILLER_13_305 VGND VGND VPWR VPWR sky130_ef_sc_hd__decap_12
XFILLER_15_55 VGND VGND VPWR VPWR sky130_fd_sc_hd__fill_1
XFILLER_13_349 VGND VGND VPWR VPWR sky130_ef_sc_hd__decap_12
XFILLER_53_496 VGND VGND VPWR VPWR sky130_fd_sc_hd__decap_8
XFILLER_21_393 VGND VGND VPWR VPWR sky130_ef_sc_hd__decap_12
Xoutput76 net76 VGND VGND VPWR VPWR chanx_right_out[13] sky130_fd_sc_hd__buf_12
Xoutput98 net98 VGND VGND VPWR VPWR chanx_right_out[6] sky130_fd_sc_hd__buf_12
XFILLER_0_253 VGND VGND VPWR VPWR sky130_ef_sc_hd__decap_12
Xoutput87 net87 VGND VGND VPWR VPWR chanx_right_out[23] sky130_fd_sc_hd__buf_12
XFILLER_91_503 VGND VGND VPWR VPWR sky130_fd_sc_hd__fill_1
XFILLER_91_525 VGND VGND VPWR VPWR sky130_fd_sc_hd__fill_2
XFILLER_36_419 VGND VGND VPWR VPWR sky130_fd_sc_hd__fill_1
XFILLER_63_205 VGND VGND VPWR VPWR sky130_ef_sc_hd__decap_12
XFILLER_16_121 VGND VGND VPWR VPWR sky130_ef_sc_hd__decap_12
XFILLER_29_493 VGND VGND VPWR VPWR sky130_fd_sc_hd__fill_2
XFILLER_63_249 VGND VGND VPWR VPWR sky130_ef_sc_hd__decap_12
XFILLER_16_165 VGND VGND VPWR VPWR sky130_ef_sc_hd__decap_12
XFILLER_31_113 VGND VGND VPWR VPWR sky130_ef_sc_hd__decap_12
XFILLER_71_293 VGND VGND VPWR VPWR sky130_ef_sc_hd__decap_12
XFILLER_72_83 VGND VGND VPWR VPWR sky130_fd_sc_hd__fill_1
XPHY_160 VGND VGND VPWR VPWR sky130_fd_sc_hd__decap_3
XPHY_182 VGND VGND VPWR VPWR sky130_fd_sc_hd__decap_3
XPHY_171 VGND VGND VPWR VPWR sky130_fd_sc_hd__decap_3
XFILLER_67_522 VGND VGND VPWR VPWR sky130_fd_sc_hd__decap_4
XFILLER_79_382 VGND VGND VPWR VPWR sky130_fd_sc_hd__decap_4
XFILLER_79_393 VGND VGND VPWR VPWR sky130_fd_sc_hd__fill_2
XFILLER_94_363 VGND VGND VPWR VPWR sky130_fd_sc_hd__fill_1
XFILLER_39_279 VGND VGND VPWR VPWR sky130_fd_sc_hd__fill_1
XFILLER_35_441 VGND VGND VPWR VPWR sky130_fd_sc_hd__decap_6
XFILLER_50_400 VGND VGND VPWR VPWR sky130_ef_sc_hd__decap_12
Xsb_0__0_.mem_right_track_44.sky130_fd_sc_hd__dfrtp_1_0_ clknet_3_6__leaf_prog_clk
+ sb_0__0_.mem_right_track_34.ccff_tail net62 VGND VGND VPWR VPWR sb_0__0_.mem_right_track_44.mem_out\[0\]
+ sky130_fd_sc_hd__dfrtp_1
XFILLER_35_485 VGND VGND VPWR VPWR sky130_ef_sc_hd__decap_12