* NGSPICE file created from bottom_tile.ext - technology: sky130A

* Black-box entry subcircuit for sky130_fd_sc_hd__fill_2 abstract view
.subckt sky130_fd_sc_hd__fill_2 VGND VNB VPB VPWR
.ends

* Black-box entry subcircuit for sky130_fd_sc_hd__tapvpwrvgnd_1 abstract view
.subckt sky130_fd_sc_hd__tapvpwrvgnd_1 VGND VPWR
.ends

* Black-box entry subcircuit for sky130_fd_sc_hd__diode_2 abstract view
.subckt sky130_fd_sc_hd__diode_2 DIODE VGND VNB VPB VPWR
.ends

* Black-box entry subcircuit for sky130_fd_sc_hd__decap_4 abstract view
.subckt sky130_fd_sc_hd__decap_4 VGND VNB VPB VPWR
.ends

* Black-box entry subcircuit for sky130_fd_sc_hd__clkdlybuf4s50_1 abstract view
.subckt sky130_fd_sc_hd__clkdlybuf4s50_1 A VGND VNB VPB VPWR X
.ends

* Black-box entry subcircuit for sky130_fd_sc_hd__clkdlybuf4s25_1 abstract view
.subckt sky130_fd_sc_hd__clkdlybuf4s25_1 A VGND VNB VPB VPWR X
.ends

* Black-box entry subcircuit for sky130_fd_sc_hd__decap_3 abstract view
.subckt sky130_fd_sc_hd__decap_3 VGND VNB VPB VPWR
.ends

* Black-box entry subcircuit for sky130_fd_sc_hd__dfrtp_1 abstract view
.subckt sky130_fd_sc_hd__dfrtp_1 CLK D RESET_B VGND VNB VPB VPWR Q
.ends

* Black-box entry subcircuit for sky130_fd_sc_hd__ebufn_8 abstract view
.subckt sky130_fd_sc_hd__ebufn_8 A TE_B VGND VNB VPB VPWR Z
.ends

* Black-box entry subcircuit for sky130_ef_sc_hd__decap_12 abstract view
.subckt sky130_ef_sc_hd__decap_12 VGND VNB VPB VPWR
.ends

* Black-box entry subcircuit for sky130_fd_sc_hd__mux2_1 abstract view
.subckt sky130_fd_sc_hd__mux2_1 A0 A1 S VGND VNB VPB VPWR X
.ends

* Black-box entry subcircuit for sky130_fd_sc_hd__conb_1 abstract view
.subckt sky130_fd_sc_hd__conb_1 VGND VNB VPB VPWR HI LO
.ends

* Black-box entry subcircuit for sky130_fd_sc_hd__fill_1 abstract view
.subckt sky130_fd_sc_hd__fill_1 VGND VNB VPB VPWR
.ends

* Black-box entry subcircuit for sky130_fd_sc_hd__dfrtp_2 abstract view
.subckt sky130_fd_sc_hd__dfrtp_2 CLK D RESET_B VGND VNB VPB VPWR Q
.ends

* Black-box entry subcircuit for sky130_fd_sc_hd__dfrtp_4 abstract view
.subckt sky130_fd_sc_hd__dfrtp_4 CLK D RESET_B VGND VNB VPB VPWR Q
.ends

* Black-box entry subcircuit for sky130_fd_sc_hd__clkbuf_2 abstract view
.subckt sky130_fd_sc_hd__clkbuf_2 A VGND VNB VPB VPWR X
.ends

* Black-box entry subcircuit for sky130_fd_sc_hd__decap_8 abstract view
.subckt sky130_fd_sc_hd__decap_8 VGND VNB VPB VPWR
.ends

* Black-box entry subcircuit for sky130_fd_sc_hd__decap_6 abstract view
.subckt sky130_fd_sc_hd__decap_6 VGND VNB VPB VPWR
.ends

* Black-box entry subcircuit for sky130_fd_sc_hd__clkbuf_1 abstract view
.subckt sky130_fd_sc_hd__clkbuf_1 A VGND VNB VPB VPWR X
.ends

* Black-box entry subcircuit for sky130_fd_sc_hd__clkbuf_8 abstract view
.subckt sky130_fd_sc_hd__clkbuf_8 A VGND VNB VPB VPWR X
.ends

* Black-box entry subcircuit for sky130_fd_sc_hd__buf_12 abstract view
.subckt sky130_fd_sc_hd__buf_12 A VGND VNB VPB VPWR X
.ends

* Black-box entry subcircuit for sky130_fd_sc_hd__inv_1 abstract view
.subckt sky130_fd_sc_hd__inv_1 A VGND VNB VPB VPWR Y
.ends

* Black-box entry subcircuit for sky130_fd_sc_hd__buf_2 abstract view
.subckt sky130_fd_sc_hd__buf_2 A VGND VNB VPB VPWR X
.ends

* Black-box entry subcircuit for sky130_fd_sc_hd__dlymetal6s2s_1 abstract view
.subckt sky130_fd_sc_hd__dlymetal6s2s_1 A VGND VNB VPB VPWR X
.ends

* Black-box entry subcircuit for sky130_fd_sc_hd__dlygate4sd3_1 abstract view
.subckt sky130_fd_sc_hd__dlygate4sd3_1 A VGND VNB VPB VPWR X
.ends

* Black-box entry subcircuit for sky130_fd_sc_hd__or2b_2 abstract view
.subckt sky130_fd_sc_hd__or2b_2 A B_N VGND VNB VPB VPWR X
.ends

* Black-box entry subcircuit for sky130_fd_sc_hd__buf_6 abstract view
.subckt sky130_fd_sc_hd__buf_6 A VGND VNB VPB VPWR X
.ends

* Black-box entry subcircuit for sky130_fd_sc_hd__clkbuf_4 abstract view
.subckt sky130_fd_sc_hd__clkbuf_4 A VGND VNB VPB VPWR X
.ends

* Black-box entry subcircuit for sky130_fd_sc_hd__clkbuf_16 abstract view
.subckt sky130_fd_sc_hd__clkbuf_16 A VGND VNB VPB VPWR X
.ends

* Black-box entry subcircuit for sky130_fd_sc_hd__buf_4 abstract view
.subckt sky130_fd_sc_hd__buf_4 A VGND VNB VPB VPWR X
.ends

.subckt bottom_tile VGND VPWR ccff_head ccff_head_1 ccff_tail ccff_tail_0 chanx_left_in[0]
+ chanx_left_in[10] chanx_left_in[11] chanx_left_in[12] chanx_left_in[13] chanx_left_in[14]
+ chanx_left_in[15] chanx_left_in[16] chanx_left_in[17] chanx_left_in[18] chanx_left_in[19]
+ chanx_left_in[1] chanx_left_in[20] chanx_left_in[21] chanx_left_in[22] chanx_left_in[23]
+ chanx_left_in[24] chanx_left_in[25] chanx_left_in[26] chanx_left_in[27] chanx_left_in[28]
+ chanx_left_in[29] chanx_left_in[2] chanx_left_in[3] chanx_left_in[4] chanx_left_in[5]
+ chanx_left_in[6] chanx_left_in[7] chanx_left_in[8] chanx_left_in[9] chanx_left_out[0]
+ chanx_left_out[10] chanx_left_out[11] chanx_left_out[12] chanx_left_out[13] chanx_left_out[14]
+ chanx_left_out[15] chanx_left_out[16] chanx_left_out[17] chanx_left_out[18] chanx_left_out[19]
+ chanx_left_out[1] chanx_left_out[20] chanx_left_out[21] chanx_left_out[22] chanx_left_out[23]
+ chanx_left_out[24] chanx_left_out[25] chanx_left_out[26] chanx_left_out[27] chanx_left_out[28]
+ chanx_left_out[29] chanx_left_out[2] chanx_left_out[3] chanx_left_out[4] chanx_left_out[5]
+ chanx_left_out[6] chanx_left_out[7] chanx_left_out[8] chanx_left_out[9] chanx_right_in_0[0]
+ chanx_right_in_0[10] chanx_right_in_0[11] chanx_right_in_0[12] chanx_right_in_0[13]
+ chanx_right_in_0[14] chanx_right_in_0[15] chanx_right_in_0[16] chanx_right_in_0[17]
+ chanx_right_in_0[18] chanx_right_in_0[19] chanx_right_in_0[1] chanx_right_in_0[20]
+ chanx_right_in_0[21] chanx_right_in_0[22] chanx_right_in_0[23] chanx_right_in_0[24]
+ chanx_right_in_0[25] chanx_right_in_0[26] chanx_right_in_0[27] chanx_right_in_0[28]
+ chanx_right_in_0[29] chanx_right_in_0[2] chanx_right_in_0[3] chanx_right_in_0[4]
+ chanx_right_in_0[5] chanx_right_in_0[6] chanx_right_in_0[7] chanx_right_in_0[8]
+ chanx_right_in_0[9] chanx_right_out_0[0] chanx_right_out_0[10] chanx_right_out_0[11]
+ chanx_right_out_0[12] chanx_right_out_0[13] chanx_right_out_0[14] chanx_right_out_0[15]
+ chanx_right_out_0[16] chanx_right_out_0[17] chanx_right_out_0[18] chanx_right_out_0[19]
+ chanx_right_out_0[1] chanx_right_out_0[20] chanx_right_out_0[21] chanx_right_out_0[22]
+ chanx_right_out_0[23] chanx_right_out_0[24] chanx_right_out_0[25] chanx_right_out_0[26]
+ chanx_right_out_0[27] chanx_right_out_0[28] chanx_right_out_0[29] chanx_right_out_0[2]
+ chanx_right_out_0[3] chanx_right_out_0[4] chanx_right_out_0[5] chanx_right_out_0[6]
+ chanx_right_out_0[7] chanx_right_out_0[8] chanx_right_out_0[9] chany_top_in[0] chany_top_in[10]
+ chany_top_in[11] chany_top_in[12] chany_top_in[13] chany_top_in[14] chany_top_in[15]
+ chany_top_in[16] chany_top_in[17] chany_top_in[18] chany_top_in[19] chany_top_in[1]
+ chany_top_in[20] chany_top_in[21] chany_top_in[22] chany_top_in[23] chany_top_in[24]
+ chany_top_in[25] chany_top_in[26] chany_top_in[27] chany_top_in[28] chany_top_in[29]
+ chany_top_in[2] chany_top_in[3] chany_top_in[4] chany_top_in[5] chany_top_in[6]
+ chany_top_in[7] chany_top_in[8] chany_top_in[9] chany_top_out[0] chany_top_out[10]
+ chany_top_out[11] chany_top_out[12] chany_top_out[13] chany_top_out[14] chany_top_out[15]
+ chany_top_out[16] chany_top_out[17] chany_top_out[18] chany_top_out[19] chany_top_out[1]
+ chany_top_out[20] chany_top_out[21] chany_top_out[22] chany_top_out[23] chany_top_out[24]
+ chany_top_out[25] chany_top_out[26] chany_top_out[27] chany_top_out[28] chany_top_out[29]
+ chany_top_out[2] chany_top_out[3] chany_top_out[4] chany_top_out[5] chany_top_out[6]
+ chany_top_out[7] chany_top_out[8] chany_top_out[9] gfpga_pad_io_soc_dir[0] gfpga_pad_io_soc_dir[1]
+ gfpga_pad_io_soc_dir[2] gfpga_pad_io_soc_dir[3] gfpga_pad_io_soc_in[0] gfpga_pad_io_soc_in[1]
+ gfpga_pad_io_soc_in[2] gfpga_pad_io_soc_in[3] gfpga_pad_io_soc_out[0] gfpga_pad_io_soc_out[1]
+ gfpga_pad_io_soc_out[2] gfpga_pad_io_soc_out[3] isol_n prog_clk prog_reset reset
+ right_bottom_grid_top_width_0_height_0_subtile_0__pin_inpad_0_ right_bottom_grid_top_width_0_height_0_subtile_1__pin_inpad_0_
+ right_bottom_grid_top_width_0_height_0_subtile_2__pin_inpad_0_ right_bottom_grid_top_width_0_height_0_subtile_3__pin_inpad_0_
+ test_enable top_left_grid_right_width_0_height_0_subtile_0__pin_O_10_ top_left_grid_right_width_0_height_0_subtile_0__pin_O_11_
+ top_left_grid_right_width_0_height_0_subtile_0__pin_O_12_ top_left_grid_right_width_0_height_0_subtile_0__pin_O_13_
+ top_left_grid_right_width_0_height_0_subtile_0__pin_O_14_ top_left_grid_right_width_0_height_0_subtile_0__pin_O_15_
+ top_left_grid_right_width_0_height_0_subtile_0__pin_O_8_ top_left_grid_right_width_0_height_0_subtile_0__pin_O_9_
+ top_width_0_height_0_subtile_0__pin_inpad_0_ top_width_0_height_0_subtile_1__pin_inpad_0_
+ top_width_0_height_0_subtile_2__pin_inpad_0_ top_width_0_height_0_subtile_3__pin_inpad_0_
XFILLER_39_222 VGND VGND VPWR VPWR sky130_fd_sc_hd__fill_2
XTAP_177 VGND VPWR sky130_fd_sc_hd__tapvpwrvgnd_1
XTAP_188 VGND VPWR sky130_fd_sc_hd__tapvpwrvgnd_1
XTAP_199 VGND VPWR sky130_fd_sc_hd__tapvpwrvgnd_1
XANTENNA_sb_1__0_.mux_right_track_28.mux_l1_in_2__A1 net9 VGND VGND VPWR VPWR sky130_fd_sc_hd__diode_2
XFILLER_35_483 VGND VGND VPWR VPWR sky130_fd_sc_hd__decap_4
XFILLER_22_199 VGND VGND VPWR VPWR sky130_fd_sc_hd__fill_2
XFILLER_10_306 VGND VGND VPWR VPWR sky130_fd_sc_hd__fill_2
Xhold340 sb_1__0_.mem_left_track_7.mem_out\[0\] VGND VGND VPWR VPWR net607 sky130_fd_sc_hd__clkdlybuf4s50_1
Xhold351 sb_1__0_.mem_top_track_4.mem_out\[0\] VGND VGND VPWR VPWR net618 sky130_fd_sc_hd__clkdlybuf4s25_1
XFILLER_2_505 VGND VGND VPWR VPWR sky130_fd_sc_hd__decap_4
Xhold362 sb_1__0_.mem_right_track_52.mem_out\[0\] VGND VGND VPWR VPWR net629 sky130_fd_sc_hd__clkdlybuf4s25_1
Xhold384 net417 VGND VGND VPWR VPWR net651 sky130_fd_sc_hd__clkdlybuf4s50_1
Xhold373 sb_1__0_.mem_right_track_10.mem_out\[0\] VGND VGND VPWR VPWR net640 sky130_fd_sc_hd__clkdlybuf4s50_1
XANTENNA_hold374_A sb_1__0_.mem_top_track_8.mem_out\[0\] VGND VGND VPWR VPWR sky130_fd_sc_hd__diode_2
XFILLER_26_96 VGND VGND VPWR VPWR sky130_fd_sc_hd__decap_4
XFILLER_26_85 VGND VGND VPWR VPWR sky130_fd_sc_hd__decap_3
Xsb_1__0_.mem_right_track_12.sky130_fd_sc_hd__dfrtp_1_1_ clknet_4_8_0_prog_clk net344
+ net211 VGND VGND VPWR VPWR sb_1__0_.mem_right_track_12.mem_out\[1\] sky130_fd_sc_hd__dfrtp_1
Xcbx_1__0_.grid_io_bottom_bottom_8__0_.logical_tile_io_mode_io__0.logical_tile_io_mode_physical__iopad_0.io_0_.IN_PROTECT_GATE
+ net96 cbx_1__0_.grid_io_bottom_bottom_8__0_.logical_tile_io_mode_io__0.logical_tile_io_mode_physical__iopad_0.io_0_.SOC_DIR_N
+ VGND VGND VPWR VPWR top_width_0_height_0_subtile_0__pin_inpad_0_ sky130_fd_sc_hd__ebufn_8
XANTENNA_input92_A chany_top_in[9] VGND VGND VPWR VPWR sky130_fd_sc_hd__diode_2
XFILLER_9_104 VGND VGND VPWR VPWR sky130_fd_sc_hd__decap_4
XFILLER_9_126 VGND VGND VPWR VPWR sky130_fd_sc_hd__decap_4
XFILLER_3_23 VGND VGND VPWR VPWR sky130_ef_sc_hd__decap_12
XFILLER_5_354 VGND VGND VPWR VPWR sky130_ef_sc_hd__decap_12
XFILLER_36_236 VGND VGND VPWR VPWR sky130_fd_sc_hd__decap_4
XFILLER_17_494 VGND VGND VPWR VPWR sky130_fd_sc_hd__decap_4
XFILLER_17_472 VGND VGND VPWR VPWR sky130_fd_sc_hd__decap_4
Xsb_1__0_.mux_left_track_29.mux_l1_in_1_ net39 net86 sb_1__0_.mem_left_track_29.mem_out\[0\]
+ VGND VGND VPWR VPWR sb_1__0_.mux_left_track_29.sky130_fd_sc_hd__mux2_1_1_X sky130_fd_sc_hd__mux2_1
XFILLER_27_225 VGND VGND VPWR VPWR sky130_fd_sc_hd__fill_2
Xsb_1__0_.mux_top_track_40.mux_l2_in_0__250 VGND VGND VPWR VPWR net250 sb_1__0_.mux_top_track_40.mux_l2_in_0__250/LO
+ sky130_fd_sc_hd__conb_1
XFILLER_10_114 VGND VGND VPWR VPWR sky130_fd_sc_hd__decap_4
XFILLER_12_43 VGND VGND VPWR VPWR sky130_fd_sc_hd__decap_4
Xhold170 net278 VGND VGND VPWR VPWR net437 sky130_fd_sc_hd__clkdlybuf4s50_1
Xhold181 sb_1__0_.mem_left_track_11.ccff_tail VGND VGND VPWR VPWR net448 sky130_fd_sc_hd__clkdlybuf4s25_1
Xhold192 net289 VGND VGND VPWR VPWR net459 sky130_fd_sc_hd__clkdlybuf4s50_1
Xsb_1__0_.mux_right_track_0.mux_l1_in_0_ net91 net73 sb_1__0_.mem_right_track_0.mem_out\[0\]
+ VGND VGND VPWR VPWR sb_1__0_.mux_right_track_0.sky130_fd_sc_hd__mux2_1_0_X sky130_fd_sc_hd__mux2_1
XFILLER_18_214 VGND VGND VPWR VPWR sky130_fd_sc_hd__fill_1
Xsb_1__0_.mem_right_track_44.sky130_fd_sc_hd__dfrtp_1_0_ clknet_4_10_0_prog_clk net519
+ net209 VGND VGND VPWR VPWR sb_1__0_.mem_right_track_44.mem_out\[0\] sky130_fd_sc_hd__dfrtp_1
Xsb_1__0_.mux_top_track_4.mux_l2_in_1_ net249 net17 sb_1__0_.mem_top_track_4.mem_out\[1\]
+ VGND VGND VPWR VPWR sb_1__0_.mux_top_track_4.sky130_fd_sc_hd__mux2_1_3_X sky130_fd_sc_hd__mux2_1
Xsb_1__0_.mem_top_track_14.sky130_fd_sc_hd__dfrtp_1_1_ clknet_4_14_0_prog_clk net541
+ net214 VGND VGND VPWR VPWR sb_1__0_.mem_top_track_14.mem_out\[1\] sky130_fd_sc_hd__dfrtp_1
XFILLER_14_431 VGND VGND VPWR VPWR sky130_fd_sc_hd__decap_4
XANTENNA__124__A net46 VGND VGND VPWR VPWR sky130_fd_sc_hd__diode_2
XFILLER_5_184 VGND VGND VPWR VPWR sky130_fd_sc_hd__decap_4
Xcbx_1__0_.cbx_8__0_.mux_top_ipin_1.mux_l2_in_3_ net260 net58 cbx_1__0_.cbx_8__0_.mem_top_ipin_1.mem_out\[1\]
+ VGND VGND VPWR VPWR cbx_1__0_.cbx_8__0_.mux_top_ipin_1.sky130_fd_sc_hd__mux2_1_8_X
+ sky130_fd_sc_hd__mux2_1
XFILLER_24_228 VGND VGND VPWR VPWR sky130_fd_sc_hd__fill_2
XANTENNA_sb_1__0_.mux_top_track_0.mux_l1_in_2__S sb_1__0_.mem_top_track_0.mem_out\[0\]
+ VGND VGND VPWR VPWR sky130_fd_sc_hd__diode_2
XFILLER_20_467 VGND VGND VPWR VPWR sky130_fd_sc_hd__decap_4
XANTENNA_sb_1__0_.mux_right_track_20.mux_l1_in_0__S sb_1__0_.mem_right_track_20.mem_out\[0\]
+ VGND VGND VPWR VPWR sky130_fd_sc_hd__diode_2
XFILLER_28_523 VGND VGND VPWR VPWR sky130_fd_sc_hd__fill_2
XANTENNA_sb_1__0_.mux_top_track_14.mux_l2_in_1__A1 net9 VGND VGND VPWR VPWR sky130_fd_sc_hd__diode_2
Xsb_1__0_.mem_top_track_6.sky130_fd_sc_hd__dfrtp_1_0_ clknet_4_13_0_prog_clk net437
+ net213 VGND VGND VPWR VPWR sb_1__0_.mem_top_track_6.mem_out\[0\] sky130_fd_sc_hd__dfrtp_2
XFILLER_23_42 VGND VGND VPWR VPWR sky130_fd_sc_hd__decap_4
Xsb_1__0_.mem_left_track_11.sky130_fd_sc_hd__dfrtp_1_0_ clknet_4_3_0_prog_clk net467
+ net206 VGND VGND VPWR VPWR sb_1__0_.mem_left_track_11.mem_out\[0\] sky130_fd_sc_hd__dfrtp_4
X_131_ sb_1__0_.mux_left_track_5.out VGND VGND VPWR VPWR net128 sky130_fd_sc_hd__clkbuf_2
XFILLER_7_449 VGND VGND VPWR VPWR sky130_ef_sc_hd__decap_12
Xsb_1__0_.mem_top_track_46.sky130_fd_sc_hd__dfrtp_1_0_ clknet_4_4_0_prog_clk net493
+ net207 VGND VGND VPWR VPWR sb_1__0_.mem_top_track_46.mem_out\[0\] sky130_fd_sc_hd__dfrtp_1
XFILLER_2_187 VGND VGND VPWR VPWR sky130_fd_sc_hd__decap_8
XANTENNA_input55_A chanx_right_in_0[2] VGND VGND VPWR VPWR sky130_fd_sc_hd__diode_2
XFILLER_17_9 VGND VGND VPWR VPWR sky130_fd_sc_hd__decap_4
XFILLER_0_24 VGND VGND VPWR VPWR sky130_fd_sc_hd__fill_2
XFILLER_0_57 VGND VGND VPWR VPWR sky130_ef_sc_hd__decap_12
XANTENNA__119__A sb_1__0_.mux_left_track_29.out VGND VGND VPWR VPWR sky130_fd_sc_hd__diode_2
XFILLER_9_55 VGND VGND VPWR VPWR sky130_fd_sc_hd__fill_1
Xsb_1__0_.mux_top_track_28.mux_l1_in_0_ net29 net59 sb_1__0_.mem_top_track_28.mem_out\[0\]
+ VGND VGND VPWR VPWR sb_1__0_.mux_top_track_28.sky130_fd_sc_hd__mux2_1_0_X sky130_fd_sc_hd__mux2_1
XFILLER_14_272 VGND VGND VPWR VPWR sky130_fd_sc_hd__decap_6
XANTENNA_sb_1__0_.mux_top_track_32.mux_l1_in_0__A0 net26 VGND VGND VPWR VPWR sky130_fd_sc_hd__diode_2
XFILLER_20_275 VGND VGND VPWR VPWR sky130_fd_sc_hd__decap_4
XFILLER_20_253 VGND VGND VPWR VPWR sky130_fd_sc_hd__fill_2
Xsb_1__0_.mux_top_track_30.mux_l1_in_0_ net28 net58 sb_1__0_.mem_top_track_30.mem_out\[0\]
+ VGND VGND VPWR VPWR sb_1__0_.mux_top_track_30.sky130_fd_sc_hd__mux2_1_0_X sky130_fd_sc_hd__mux2_1
XANTENNA_sb_1__0_.mux_left_track_21.mux_l3_in_0__S sb_1__0_.mem_left_track_21.ccff_tail
+ VGND VGND VPWR VPWR sky130_fd_sc_hd__diode_2
XFILLER_28_320 VGND VGND VPWR VPWR sky130_fd_sc_hd__fill_2
XANTENNA_sb_1__0_.mux_right_track_2.mux_l1_in_1__A1 net90 VGND VGND VPWR VPWR sky130_fd_sc_hd__diode_2
Xcbx_1__0_.cbx_8__0_.mux_top_ipin_1.mux_l1_in_4_ net35 net4 cbx_1__0_.cbx_8__0_.mem_top_ipin_1.mem_out\[0\]
+ VGND VGND VPWR VPWR cbx_1__0_.cbx_8__0_.mux_top_ipin_1.sky130_fd_sc_hd__mux2_1_4_X
+ sky130_fd_sc_hd__mux2_1
XANTENNA_sb_1__0_.mux_left_track_11.mux_l1_in_2__S sb_1__0_.mem_left_track_11.mem_out\[0\]
+ VGND VGND VPWR VPWR sky130_fd_sc_hd__diode_2
X_114_ net35 VGND VGND VPWR VPWR net110 sky130_fd_sc_hd__clkbuf_1
XFILLER_7_235 VGND VGND VPWR VPWR sky130_fd_sc_hd__decap_8
Xsb_1__0_.mux_top_track_42.mux_l2_in_0_ net251 sb_1__0_.mux_top_track_42.sky130_fd_sc_hd__mux2_1_0_X
+ sb_1__0_.mem_top_track_42.ccff_tail VGND VGND VPWR VPWR sb_1__0_.mux_top_track_42.sky130_fd_sc_hd__mux2_1_1_X
+ sky130_fd_sc_hd__mux2_1
XANTENNA_cbx_1__0_.cbx_8__0_.mux_top_ipin_3.mux_l1_in_3__A0 net39 VGND VGND VPWR VPWR
+ sky130_fd_sc_hd__diode_2
XFILLER_19_331 VGND VGND VPWR VPWR sky130_fd_sc_hd__fill_2
XFILLER_3_485 VGND VGND VPWR VPWR sky130_fd_sc_hd__fill_1
XANTENNA_sb_1__0_.mux_top_track_24.mux_l1_in_0__A1 net103 VGND VGND VPWR VPWR sky130_fd_sc_hd__diode_2
XFILLER_40_348 VGND VGND VPWR VPWR sky130_fd_sc_hd__decap_4
XFILLER_40_337 VGND VGND VPWR VPWR sky130_fd_sc_hd__fill_2
XFILLER_25_389 VGND VGND VPWR VPWR sky130_fd_sc_hd__decap_3
XFILLER_13_507 VGND VGND VPWR VPWR sky130_fd_sc_hd__fill_2
Xsb_1__0_.mem_right_track_2.sky130_fd_sc_hd__dfrtp_1_1_ clknet_4_12_0_prog_clk net407
+ net211 VGND VGND VPWR VPWR sb_1__0_.mem_right_track_2.mem_out\[1\] sky130_fd_sc_hd__dfrtp_1
XFILLER_20_21 VGND VGND VPWR VPWR sky130_fd_sc_hd__decap_3
Xcbx_1__0_.cbx_8__0_.mux_top_ipin_1.mux_l4_in_0_ cbx_1__0_.cbx_8__0_.mux_top_ipin_1.sky130_fd_sc_hd__mux2_1_10_X
+ cbx_1__0_.cbx_8__0_.mux_top_ipin_1.sky130_fd_sc_hd__mux2_1_9_X cbx_1__0_.cbx_8__0_.mem_top_ipin_1.ccff_tail
+ VGND VGND VPWR VPWR cbx_1__0_.cbx_8__0_.mux_top_ipin_1.sky130_fd_sc_hd__mux2_1_11_X
+ sky130_fd_sc_hd__mux2_1
Xhold74 net538 VGND VGND VPWR VPWR net341 sky130_fd_sc_hd__clkdlybuf4s50_1
XFILLER_29_30 VGND VGND VPWR VPWR sky130_fd_sc_hd__decap_4
Xhold30 net464 VGND VGND VPWR VPWR net297 sky130_fd_sc_hd__clkdlybuf4s25_1
XFILLER_20_87 VGND VGND VPWR VPWR sky130_fd_sc_hd__fill_2
Xhold52 net478 VGND VGND VPWR VPWR net319 sky130_fd_sc_hd__clkdlybuf4s25_1
XFILLER_0_477 VGND VGND VPWR VPWR sky130_fd_sc_hd__decap_8
Xhold63 net526 VGND VGND VPWR VPWR net330 sky130_fd_sc_hd__clkdlybuf4s25_1
Xhold41 net542 VGND VGND VPWR VPWR net308 sky130_fd_sc_hd__clkdlybuf4s50_1
Xhold96 net599 VGND VGND VPWR VPWR net363 sky130_fd_sc_hd__clkdlybuf4s50_1
XFILLER_16_356 VGND VGND VPWR VPWR sky130_fd_sc_hd__fill_2
Xhold85 net570 VGND VGND VPWR VPWR net352 sky130_fd_sc_hd__clkdlybuf4s25_1
XANTENNA_input18_A chanx_left_in[23] VGND VGND VPWR VPWR sky130_fd_sc_hd__diode_2
XFILLER_6_23 VGND VGND VPWR VPWR sky130_fd_sc_hd__decap_4
XTAP_348 VGND VPWR sky130_fd_sc_hd__tapvpwrvgnd_1
XTAP_337 VGND VPWR sky130_fd_sc_hd__tapvpwrvgnd_1
XTAP_326 VGND VPWR sky130_fd_sc_hd__tapvpwrvgnd_1
XTAP_315 VGND VPWR sky130_fd_sc_hd__tapvpwrvgnd_1
XTAP_304 VGND VPWR sky130_fd_sc_hd__tapvpwrvgnd_1
XFILLER_3_271 VGND VGND VPWR VPWR sky130_fd_sc_hd__decap_8
XANTENNA_5 net252 VGND VGND VPWR VPWR sky130_fd_sc_hd__diode_2
XFILLER_39_459 VGND VGND VPWR VPWR sky130_fd_sc_hd__decap_4
XTAP_359 VGND VPWR sky130_fd_sc_hd__tapvpwrvgnd_1
XFILLER_13_3 VGND VGND VPWR VPWR sky130_fd_sc_hd__fill_2
XFILLER_34_197 VGND VGND VPWR VPWR sky130_fd_sc_hd__decap_3
XFILLER_19_194 VGND VGND VPWR VPWR sky130_fd_sc_hd__decap_4
XANTENNA_fanout205_A net206 VGND VGND VPWR VPWR sky130_fd_sc_hd__diode_2
XFILLER_1_219 VGND VGND VPWR VPWR sky130_fd_sc_hd__decap_4
XFILLER_25_153 VGND VGND VPWR VPWR sky130_fd_sc_hd__decap_4
XFILLER_15_98 VGND VGND VPWR VPWR sky130_fd_sc_hd__decap_4
XFILLER_15_43 VGND VGND VPWR VPWR sky130_fd_sc_hd__decap_4
XFILLER_9_308 VGND VGND VPWR VPWR sky130_fd_sc_hd__decap_4
XANTENNA_cbx_1__0_.cbx_8__0_.mux_top_ipin_3.mux_l2_in_2__A0 net25 VGND VGND VPWR VPWR
+ sky130_fd_sc_hd__diode_2
XFILLER_13_337 VGND VGND VPWR VPWR sky130_fd_sc_hd__fill_2
XFILLER_13_359 VGND VGND VPWR VPWR sky130_fd_sc_hd__decap_4
XFILLER_31_97 VGND VGND VPWR VPWR sky130_fd_sc_hd__fill_2
XFILLER_5_525 VGND VGND VPWR VPWR sky130_fd_sc_hd__fill_2
XFILLER_16_197 VGND VGND VPWR VPWR sky130_fd_sc_hd__fill_2
XANTENNA__127__A sb_1__0_.mux_left_track_13.out VGND VGND VPWR VPWR sky130_fd_sc_hd__diode_2
XFILLER_8_363 VGND VGND VPWR VPWR sky130_fd_sc_hd__fill_1
XFILLER_12_392 VGND VGND VPWR VPWR sky130_fd_sc_hd__decap_3
XANTENNA_sb_1__0_.mux_top_track_58.mux_l2_in_0__S sb_1__0_.mem_right_track_0.ccff_head
+ VGND VGND VPWR VPWR sky130_fd_sc_hd__diode_2
XTAP_123 VGND VPWR sky130_fd_sc_hd__tapvpwrvgnd_1
XTAP_112 VGND VPWR sky130_fd_sc_hd__tapvpwrvgnd_1
XTAP_101 VGND VPWR sky130_fd_sc_hd__tapvpwrvgnd_1
XTAP_134 VGND VPWR sky130_fd_sc_hd__tapvpwrvgnd_1
XTAP_145 VGND VPWR sky130_fd_sc_hd__tapvpwrvgnd_1
XTAP_156 VGND VPWR sky130_fd_sc_hd__tapvpwrvgnd_1
XTAP_167 VGND VPWR sky130_fd_sc_hd__tapvpwrvgnd_1
XTAP_178 VGND VPWR sky130_fd_sc_hd__tapvpwrvgnd_1
XTAP_189 VGND VPWR sky130_fd_sc_hd__tapvpwrvgnd_1
XFILLER_39_278 VGND VGND VPWR VPWR sky130_fd_sc_hd__fill_2
XANTENNA_sb_1__0_.mux_left_track_1.mux_l1_in_2__S sb_1__0_.mem_left_track_1.mem_out\[0\]
+ VGND VGND VPWR VPWR sky130_fd_sc_hd__diode_2
XFILLER_35_495 VGND VGND VPWR VPWR sky130_fd_sc_hd__decap_4
Xcbx_1__0_.cbx_8__0_.mux_top_ipin_1.mux_l3_in_1_ cbx_1__0_.cbx_8__0_.mux_top_ipin_1.sky130_fd_sc_hd__mux2_1_8_X
+ cbx_1__0_.cbx_8__0_.mux_top_ipin_1.sky130_fd_sc_hd__mux2_1_7_X cbx_1__0_.cbx_8__0_.mem_top_ipin_1.mem_out\[2\]
+ VGND VGND VPWR VPWR cbx_1__0_.cbx_8__0_.mux_top_ipin_1.sky130_fd_sc_hd__mux2_1_10_X
+ sky130_fd_sc_hd__mux2_1
Xhold363 sb_1__0_.mem_top_track_0.mem_out\[1\] VGND VGND VPWR VPWR net630 sky130_fd_sc_hd__clkdlybuf4s25_1
Xhold374 sb_1__0_.mem_top_track_8.mem_out\[0\] VGND VGND VPWR VPWR net641 sky130_fd_sc_hd__clkdlybuf4s25_1
Xhold330 sb_1__0_.mem_top_track_12.mem_out\[1\] VGND VGND VPWR VPWR net597 sky130_fd_sc_hd__clkdlybuf4s25_1
Xhold385 net2 VGND VGND VPWR VPWR net652 sky130_fd_sc_hd__clkdlybuf4s25_1
Xhold352 sb_1__0_.mem_top_track_16.mem_out\[1\] VGND VGND VPWR VPWR net619 sky130_fd_sc_hd__clkdlybuf4s25_1
Xhold341 sb_1__0_.mem_right_track_12.mem_out\[1\] VGND VGND VPWR VPWR net608 sky130_fd_sc_hd__clkdlybuf4s50_1
XANTENNA_sb_1__0_.mux_left_track_7.mux_l1_in_0__A0 net64 VGND VGND VPWR VPWR sky130_fd_sc_hd__diode_2
XFILLER_26_42 VGND VGND VPWR VPWR sky130_fd_sc_hd__decap_4
Xsb_1__0_.mem_right_track_12.sky130_fd_sc_hd__dfrtp_1_0_ clknet_4_10_0_prog_clk net547
+ net210 VGND VGND VPWR VPWR sb_1__0_.mem_right_track_12.mem_out\[0\] sky130_fd_sc_hd__dfrtp_2
XANTENNA_sb_1__0_.mux_right_track_36.mux_l2_in_1__A1 net8 VGND VGND VPWR VPWR sky130_fd_sc_hd__diode_2
XANTENNA_input85_A chany_top_in[2] VGND VGND VPWR VPWR sky130_fd_sc_hd__diode_2
XFILLER_9_138 VGND VGND VPWR VPWR sky130_fd_sc_hd__fill_2
XANTENNA_sb_1__0_.mux_left_track_29.mux_l1_in_0__A0 net68 VGND VGND VPWR VPWR sky130_fd_sc_hd__diode_2
XFILLER_3_57 VGND VGND VPWR VPWR sky130_ef_sc_hd__decap_12
XFILLER_3_35 VGND VGND VPWR VPWR sky130_ef_sc_hd__decap_12
XFILLER_5_366 VGND VGND VPWR VPWR sky130_ef_sc_hd__decap_12
XFILLER_32_487 VGND VGND VPWR VPWR sky130_fd_sc_hd__decap_4
XFILLER_32_432 VGND VGND VPWR VPWR sky130_fd_sc_hd__decap_4
XFILLER_32_421 VGND VGND VPWR VPWR sky130_fd_sc_hd__fill_2
Xsb_1__0_.mux_left_track_29.mux_l1_in_0_ net68 net80 sb_1__0_.mem_left_track_29.mem_out\[0\]
+ VGND VGND VPWR VPWR sb_1__0_.mux_left_track_29.sky130_fd_sc_hd__mux2_1_0_X sky130_fd_sc_hd__mux2_1
XFILLER_35_292 VGND VGND VPWR VPWR sky130_fd_sc_hd__fill_2
XFILLER_35_281 VGND VGND VPWR VPWR sky130_fd_sc_hd__fill_2
XFILLER_27_259 VGND VGND VPWR VPWR sky130_fd_sc_hd__decap_4
XFILLER_23_421 VGND VGND VPWR VPWR sky130_fd_sc_hd__decap_4
XFILLER_23_487 VGND VGND VPWR VPWR sky130_fd_sc_hd__fill_2
XFILLER_10_126 VGND VGND VPWR VPWR sky130_fd_sc_hd__decap_4
Xhold182 net284 VGND VGND VPWR VPWR net449 sky130_fd_sc_hd__clkdlybuf4s50_1
XFILLER_2_303 VGND VGND VPWR VPWR sky130_fd_sc_hd__decap_4
Xhold171 cbx_1__0_.grid_io_bottom_bottom_8__0_.logical_tile_io_mode_io__2.ccff_tail
+ VGND VGND VPWR VPWR net438 sky130_fd_sc_hd__clkdlybuf4s25_1
Xhold193 cbx_1__0_.grid_io_bottom_bottom_8__0_.logical_tile_io_mode_io__1.ccff_tail
+ VGND VGND VPWR VPWR net460 sky130_fd_sc_hd__clkdlybuf4s25_1
Xhold160 net273 VGND VGND VPWR VPWR net427 sky130_fd_sc_hd__clkdlybuf4s25_1
XFILLER_37_85 VGND VGND VPWR VPWR sky130_fd_sc_hd__decap_3
Xsb_1__0_.mem_top_track_14.sky130_fd_sc_hd__dfrtp_1_0_ clknet_4_14_0_prog_clk net497
+ net215 VGND VGND VPWR VPWR sb_1__0_.mem_top_track_14.mem_out\[0\] sky130_fd_sc_hd__dfrtp_1
XFILLER_18_248 VGND VGND VPWR VPWR sky130_fd_sc_hd__fill_2
XFILLER_18_226 VGND VGND VPWR VPWR sky130_fd_sc_hd__decap_4
Xsb_1__0_.mux_top_track_4.mux_l2_in_0_ sb_1__0_.mux_top_track_4.sky130_fd_sc_hd__mux2_1_1_X
+ sb_1__0_.mux_top_track_4.sky130_fd_sc_hd__mux2_1_0_X sb_1__0_.mem_top_track_4.mem_out\[1\]
+ VGND VGND VPWR VPWR sb_1__0_.mux_top_track_4.sky130_fd_sc_hd__mux2_1_2_X sky130_fd_sc_hd__mux2_1
XFILLER_14_421 VGND VGND VPWR VPWR sky130_fd_sc_hd__fill_2
XANTENNA_sb_1__0_.mux_top_track_40.mux_l1_in_0__A0 net3 VGND VGND VPWR VPWR sky130_fd_sc_hd__diode_2
Xclkbuf_4_6_0_prog_clk clknet_0_prog_clk VGND VGND VPWR VPWR clknet_4_6_0_prog_clk
+ sky130_fd_sc_hd__clkbuf_8
XFILLER_5_196 VGND VGND VPWR VPWR sky130_fd_sc_hd__decap_4
XFILLER_1_391 VGND VGND VPWR VPWR sky130_fd_sc_hd__fill_1
XANTENNA__140__A net30 VGND VGND VPWR VPWR sky130_fd_sc_hd__diode_2
Xcbx_1__0_.cbx_8__0_.mux_top_ipin_1.mux_l2_in_2_ net27 cbx_1__0_.cbx_8__0_.mux_top_ipin_1.sky130_fd_sc_hd__mux2_1_4_X
+ cbx_1__0_.cbx_8__0_.mem_top_ipin_1.mem_out\[1\] VGND VGND VPWR VPWR cbx_1__0_.cbx_8__0_.mux_top_ipin_1.sky130_fd_sc_hd__mux2_1_7_X
+ sky130_fd_sc_hd__mux2_1
XFILLER_17_292 VGND VGND VPWR VPWR sky130_fd_sc_hd__decap_4
XFILLER_17_281 VGND VGND VPWR VPWR sky130_fd_sc_hd__fill_2
Xsb_1__0_.mux_top_track_8.sky130_fd_sc_hd__buf_4_0_ sb_1__0_.mux_top_track_8.sky130_fd_sc_hd__mux2_1_5_X
+ VGND VGND VPWR VPWR sb_1__0_.mux_top_track_8.out sky130_fd_sc_hd__clkbuf_1
Xsb_1__0_.mux_top_track_22.mux_l1_in_1__241 VGND VGND VPWR VPWR net241 sb_1__0_.mux_top_track_22.mux_l1_in_1__241/LO
+ sky130_fd_sc_hd__conb_1
XFILLER_23_273 VGND VGND VPWR VPWR sky130_fd_sc_hd__fill_2
XFILLER_23_54 VGND VGND VPWR VPWR sky130_fd_sc_hd__fill_2
XFILLER_23_21 VGND VGND VPWR VPWR sky130_fd_sc_hd__fill_2
X_130_ sb_1__0_.mux_left_track_7.out VGND VGND VPWR VPWR net127 sky130_fd_sc_hd__clkbuf_2
XFILLER_7_406 VGND VGND VPWR VPWR sky130_fd_sc_hd__fill_2
XFILLER_19_502 VGND VGND VPWR VPWR sky130_fd_sc_hd__fill_2
XANTENNA_input48_A chanx_right_in_0[23] VGND VGND VPWR VPWR sky130_fd_sc_hd__diode_2
XFILLER_0_69 VGND VGND VPWR VPWR sky130_fd_sc_hd__decap_4
XANTENNA__135__A net25 VGND VGND VPWR VPWR sky130_fd_sc_hd__diode_2
XFILLER_14_251 VGND VGND VPWR VPWR sky130_fd_sc_hd__fill_1
XFILLER_6_461 VGND VGND VPWR VPWR sky130_fd_sc_hd__fill_1
XANTENNA_sb_1__0_.mux_top_track_32.mux_l1_in_0__A1 net56 VGND VGND VPWR VPWR sky130_fd_sc_hd__diode_2
XANTENNA_sb_1__0_.mux_right_track_12.mux_l1_in_0__A0 net68 VGND VGND VPWR VPWR sky130_fd_sc_hd__diode_2
XFILLER_4_409 VGND VGND VPWR VPWR sky130_fd_sc_hd__decap_8
Xsb_1__0_.mux_top_track_4.mux_l1_in_1_ net47 net50 sb_1__0_.mem_top_track_4.mem_out\[0\]
+ VGND VGND VPWR VPWR sb_1__0_.mux_top_track_4.sky130_fd_sc_hd__mux2_1_1_X sky130_fd_sc_hd__mux2_1
XFILLER_28_376 VGND VGND VPWR VPWR sky130_fd_sc_hd__fill_2
XFILLER_28_365 VGND VGND VPWR VPWR sky130_fd_sc_hd__fill_2
XFILLER_16_505 VGND VGND VPWR VPWR sky130_fd_sc_hd__decap_4
XANTENNA_input102_A top_left_grid_right_width_0_height_0_subtile_0__pin_O_13_ VGND
+ VGND VPWR VPWR sky130_fd_sc_hd__diode_2
XFILLER_31_519 VGND VGND VPWR VPWR sky130_fd_sc_hd__fill_2
X_113_ net34 VGND VGND VPWR VPWR net138 sky130_fd_sc_hd__clkbuf_2
Xcbx_1__0_.cbx_8__0_.mux_top_ipin_1.mux_l1_in_3_ net41 net10 cbx_1__0_.cbx_8__0_.mem_top_ipin_1.mem_out\[0\]
+ VGND VGND VPWR VPWR cbx_1__0_.cbx_8__0_.mux_top_ipin_1.sky130_fd_sc_hd__mux2_1_3_X
+ sky130_fd_sc_hd__mux2_1
XFILLER_7_225 VGND VGND VPWR VPWR sky130_fd_sc_hd__fill_2
XFILLER_11_221 VGND VGND VPWR VPWR sky130_fd_sc_hd__decap_3
XFILLER_38_118 VGND VGND VPWR VPWR sky130_fd_sc_hd__decap_4
XANTENNA_cbx_1__0_.cbx_8__0_.mux_top_ipin_3.mux_l1_in_3__A1 net8 VGND VGND VPWR VPWR
+ sky130_fd_sc_hd__diode_2
XFILLER_34_346 VGND VGND VPWR VPWR sky130_fd_sc_hd__decap_4
Xcbx_1__0_.cbx_8__0_.mux_top_ipin_2.sky130_fd_sc_hd__buf_4_0_ cbx_1__0_.cbx_8__0_.mux_top_ipin_2.sky130_fd_sc_hd__mux2_1_11_X
+ VGND VGND VPWR VPWR cbx_1__0_.bottom_grid_top_width_0_height_0_subtile_2__pin_outpad_0_
+ sky130_fd_sc_hd__clkbuf_1
XFILLER_37_195 VGND VGND VPWR VPWR sky130_fd_sc_hd__fill_2
Xsb_1__0_.mem_right_track_2.sky130_fd_sc_hd__dfrtp_1_0_ clknet_4_12_0_prog_clk net463
+ net211 VGND VGND VPWR VPWR sb_1__0_.mem_right_track_2.mem_out\[0\] sky130_fd_sc_hd__dfrtp_2
XANTENNA_sb_1__0_.mux_right_track_10.mux_l1_in_2__A0 net13 VGND VGND VPWR VPWR sky130_fd_sc_hd__diode_2
Xhold86 net568 VGND VGND VPWR VPWR net353 sky130_fd_sc_hd__clkdlybuf4s50_1
Xhold64 net528 VGND VGND VPWR VPWR net331 sky130_fd_sc_hd__clkdlybuf4s25_1
Xhold97 net596 VGND VGND VPWR VPWR net364 sky130_fd_sc_hd__clkdlybuf4s50_1
XFILLER_29_64 VGND VGND VPWR VPWR sky130_fd_sc_hd__decap_4
XFILLER_29_42 VGND VGND VPWR VPWR sky130_fd_sc_hd__decap_4
Xhold20 net456 VGND VGND VPWR VPWR net287 sky130_fd_sc_hd__clkdlybuf4s25_1
Xhold75 net556 VGND VGND VPWR VPWR net342 sky130_fd_sc_hd__clkdlybuf4s25_1
Xhold31 net482 VGND VGND VPWR VPWR net298 sky130_fd_sc_hd__clkdlybuf4s25_1
Xhold42 net486 VGND VGND VPWR VPWR net309 sky130_fd_sc_hd__clkdlybuf4s25_1
Xhold53 net484 VGND VGND VPWR VPWR net320 sky130_fd_sc_hd__clkdlybuf4s25_1
Xsb_1__0_.mux_top_track_30.sky130_fd_sc_hd__buf_4_0_ sb_1__0_.mux_top_track_30.sky130_fd_sc_hd__mux2_1_1_X
+ VGND VGND VPWR VPWR sb_1__0_.mux_top_track_30.out sky130_fd_sc_hd__clkbuf_1
XANTENNA_6 net252 VGND VGND VPWR VPWR sky130_fd_sc_hd__diode_2
XTAP_349 VGND VPWR sky130_fd_sc_hd__tapvpwrvgnd_1
XTAP_338 VGND VPWR sky130_fd_sc_hd__tapvpwrvgnd_1
XTAP_327 VGND VPWR sky130_fd_sc_hd__tapvpwrvgnd_1
XTAP_316 VGND VPWR sky130_fd_sc_hd__tapvpwrvgnd_1