* NGSPICE file created from bottom_left_tile.ext - technology: sky130A

* Black-box entry subcircuit for sky130_fd_sc_hd__decap_4 abstract view
.subckt sky130_fd_sc_hd__decap_4 VGND VNB VPB VPWR
.ends

* Black-box entry subcircuit for sky130_fd_sc_hd__tapvpwrvgnd_1 abstract view
.subckt sky130_fd_sc_hd__tapvpwrvgnd_1 VGND VPWR
.ends

* Black-box entry subcircuit for sky130_fd_sc_hd__mux2_1 abstract view
.subckt sky130_fd_sc_hd__mux2_1 A0 A1 S VGND VNB VPB VPWR X
.ends

* Black-box entry subcircuit for sky130_fd_sc_hd__fill_2 abstract view
.subckt sky130_fd_sc_hd__fill_2 VGND VNB VPB VPWR
.ends

* Black-box entry subcircuit for sky130_fd_sc_hd__buf_4 abstract view
.subckt sky130_fd_sc_hd__buf_4 A VGND VNB VPB VPWR X
.ends

* Black-box entry subcircuit for sky130_fd_sc_hd__fill_1 abstract view
.subckt sky130_fd_sc_hd__fill_1 VGND VNB VPB VPWR
.ends

* Black-box entry subcircuit for sky130_fd_sc_hd__clkdlybuf4s25_1 abstract view
.subckt sky130_fd_sc_hd__clkdlybuf4s25_1 A VGND VNB VPB VPWR X
.ends

* Black-box entry subcircuit for sky130_fd_sc_hd__decap_3 abstract view
.subckt sky130_fd_sc_hd__decap_3 VGND VNB VPB VPWR
.ends

* Black-box entry subcircuit for sky130_fd_sc_hd__conb_1 abstract view
.subckt sky130_fd_sc_hd__conb_1 VGND VNB VPB VPWR HI LO
.ends

* Black-box entry subcircuit for sky130_fd_sc_hd__diode_2 abstract view
.subckt sky130_fd_sc_hd__diode_2 DIODE VGND VNB VPB VPWR
.ends

* Black-box entry subcircuit for sky130_fd_sc_hd__clkbuf_2 abstract view
.subckt sky130_fd_sc_hd__clkbuf_2 A VGND VNB VPB VPWR X
.ends

* Black-box entry subcircuit for sky130_fd_sc_hd__dfrtp_1 abstract view
.subckt sky130_fd_sc_hd__dfrtp_1 CLK D RESET_B VGND VNB VPB VPWR Q
.ends

* Black-box entry subcircuit for sky130_ef_sc_hd__decap_12 abstract view
.subckt sky130_ef_sc_hd__decap_12 VGND VNB VPB VPWR
.ends

* Black-box entry subcircuit for sky130_fd_sc_hd__dlymetal6s2s_1 abstract view
.subckt sky130_fd_sc_hd__dlymetal6s2s_1 A VGND VNB VPB VPWR X
.ends

* Black-box entry subcircuit for sky130_fd_sc_hd__clkdlybuf4s50_1 abstract view
.subckt sky130_fd_sc_hd__clkdlybuf4s50_1 A VGND VNB VPB VPWR X
.ends

* Black-box entry subcircuit for sky130_fd_sc_hd__clkbuf_1 abstract view
.subckt sky130_fd_sc_hd__clkbuf_1 A VGND VNB VPB VPWR X
.ends

* Black-box entry subcircuit for sky130_fd_sc_hd__buf_12 abstract view
.subckt sky130_fd_sc_hd__buf_12 A VGND VNB VPB VPWR X
.ends

* Black-box entry subcircuit for sky130_fd_sc_hd__clkbuf_8 abstract view
.subckt sky130_fd_sc_hd__clkbuf_8 A VGND VNB VPB VPWR X
.ends

* Black-box entry subcircuit for sky130_fd_sc_hd__decap_6 abstract view
.subckt sky130_fd_sc_hd__decap_6 VGND VNB VPB VPWR
.ends

* Black-box entry subcircuit for sky130_fd_sc_hd__decap_8 abstract view
.subckt sky130_fd_sc_hd__decap_8 VGND VNB VPB VPWR
.ends

* Black-box entry subcircuit for sky130_fd_sc_hd__dfrtp_2 abstract view
.subckt sky130_fd_sc_hd__dfrtp_2 CLK D RESET_B VGND VNB VPB VPWR Q
.ends

* Black-box entry subcircuit for sky130_fd_sc_hd__dlygate4sd3_1 abstract view
.subckt sky130_fd_sc_hd__dlygate4sd3_1 A VGND VNB VPB VPWR X
.ends

* Black-box entry subcircuit for sky130_fd_sc_hd__dfrtp_4 abstract view
.subckt sky130_fd_sc_hd__dfrtp_4 CLK D RESET_B VGND VNB VPB VPWR Q
.ends

* Black-box entry subcircuit for sky130_fd_sc_hd__clkbuf_16 abstract view
.subckt sky130_fd_sc_hd__clkbuf_16 A VGND VNB VPB VPWR X
.ends

* Black-box entry subcircuit for sky130_fd_sc_hd__clkbuf_4 abstract view
.subckt sky130_fd_sc_hd__clkbuf_4 A VGND VNB VPB VPWR X
.ends

* Black-box entry subcircuit for sky130_fd_sc_hd__buf_6 abstract view
.subckt sky130_fd_sc_hd__buf_6 A VGND VNB VPB VPWR X
.ends

.subckt bottom_left_tile VGND VPWR ccff_head ccff_tail chanx_right_in[0] chanx_right_in[10]
+ chanx_right_in[11] chanx_right_in[12] chanx_right_in[13] chanx_right_in[14] chanx_right_in[15]
+ chanx_right_in[16] chanx_right_in[17] chanx_right_in[18] chanx_right_in[19] chanx_right_in[1]
+ chanx_right_in[20] chanx_right_in[21] chanx_right_in[22] chanx_right_in[23] chanx_right_in[24]
+ chanx_right_in[25] chanx_right_in[26] chanx_right_in[27] chanx_right_in[28] chanx_right_in[29]
+ chanx_right_in[2] chanx_right_in[3] chanx_right_in[4] chanx_right_in[5] chanx_right_in[6]
+ chanx_right_in[7] chanx_right_in[8] chanx_right_in[9] chanx_right_out[0] chanx_right_out[10]
+ chanx_right_out[11] chanx_right_out[12] chanx_right_out[13] chanx_right_out[14]
+ chanx_right_out[15] chanx_right_out[16] chanx_right_out[17] chanx_right_out[18]
+ chanx_right_out[19] chanx_right_out[1] chanx_right_out[20] chanx_right_out[21] chanx_right_out[22]
+ chanx_right_out[23] chanx_right_out[24] chanx_right_out[25] chanx_right_out[26]
+ chanx_right_out[27] chanx_right_out[28] chanx_right_out[29] chanx_right_out[2] chanx_right_out[3]
+ chanx_right_out[4] chanx_right_out[5] chanx_right_out[6] chanx_right_out[7] chanx_right_out[8]
+ chanx_right_out[9] chany_top_in[0] chany_top_in[10] chany_top_in[11] chany_top_in[12]
+ chany_top_in[13] chany_top_in[14] chany_top_in[15] chany_top_in[16] chany_top_in[17]
+ chany_top_in[18] chany_top_in[19] chany_top_in[1] chany_top_in[20] chany_top_in[21]
+ chany_top_in[22] chany_top_in[23] chany_top_in[24] chany_top_in[25] chany_top_in[26]
+ chany_top_in[27] chany_top_in[28] chany_top_in[29] chany_top_in[2] chany_top_in[3]
+ chany_top_in[4] chany_top_in[5] chany_top_in[6] chany_top_in[7] chany_top_in[8]
+ chany_top_in[9] chany_top_out[0] chany_top_out[10] chany_top_out[11] chany_top_out[12]
+ chany_top_out[13] chany_top_out[14] chany_top_out[15] chany_top_out[16] chany_top_out[17]
+ chany_top_out[18] chany_top_out[19] chany_top_out[1] chany_top_out[20] chany_top_out[21]
+ chany_top_out[22] chany_top_out[23] chany_top_out[24] chany_top_out[25] chany_top_out[26]
+ chany_top_out[27] chany_top_out[28] chany_top_out[29] chany_top_out[2] chany_top_out[3]
+ chany_top_out[4] chany_top_out[5] chany_top_out[6] chany_top_out[7] chany_top_out[8]
+ chany_top_out[9] prog_clk prog_reset reset right_bottom_grid_top_width_0_height_0_subtile_0__pin_inpad_0_
+ right_bottom_grid_top_width_0_height_0_subtile_1__pin_inpad_0_ right_bottom_grid_top_width_0_height_0_subtile_2__pin_inpad_0_
+ right_bottom_grid_top_width_0_height_0_subtile_3__pin_inpad_0_ test_enable top_left_grid_right_width_0_height_0_subtile_0__pin_inpad_0_
+ top_left_grid_right_width_0_height_0_subtile_1__pin_inpad_0_ top_left_grid_right_width_0_height_0_subtile_2__pin_inpad_0_
+ top_left_grid_right_width_0_height_0_subtile_3__pin_inpad_0_
XFILLER_39_255 VGND VGND VPWR VPWR sky130_fd_sc_hd__decap_4
XTAP_177 VGND VPWR sky130_fd_sc_hd__tapvpwrvgnd_1
XTAP_188 VGND VPWR sky130_fd_sc_hd__tapvpwrvgnd_1
XTAP_199 VGND VPWR sky130_fd_sc_hd__tapvpwrvgnd_1
Xsb_0__0_.mux_top_track_0.mux_l1_in_1_ net139 net22 sb_0__0_.mem_top_track_0.mem_out\[0\]
+ VGND VGND VPWR VPWR sb_0__0_.mux_top_track_0.sky130_fd_sc_hd__mux2_1_1_X sky130_fd_sc_hd__mux2_1
XFILLER_13_166 VGND VGND VPWR VPWR sky130_fd_sc_hd__fill_2
XFILLER_36_203 VGND VGND VPWR VPWR sky130_fd_sc_hd__fill_2
Xfanout127 net62 VGND VGND VPWR VPWR net127 sky130_fd_sc_hd__buf_4
XFILLER_27_225 VGND VGND VPWR VPWR sky130_fd_sc_hd__fill_1
XFILLER_10_103 VGND VGND VPWR VPWR sky130_fd_sc_hd__decap_4
XFILLER_10_125 VGND VGND VPWR VPWR sky130_fd_sc_hd__fill_2
XFILLER_12_54 VGND VGND VPWR VPWR sky130_fd_sc_hd__decap_4
Xhold192 sb_0__0_.mem_top_track_28.mem_out\[0\] VGND VGND VPWR VPWR net357 sky130_fd_sc_hd__clkdlybuf4s25_1
XFILLER_12_87 VGND VGND VPWR VPWR sky130_fd_sc_hd__fill_2
Xhold170 sb_0__0_.mem_top_track_50.mem_out\[0\] VGND VGND VPWR VPWR net335 sky130_fd_sc_hd__clkdlybuf4s25_1
Xhold181 net218 VGND VGND VPWR VPWR net346 sky130_fd_sc_hd__clkdlybuf4s25_1
XFILLER_18_225 VGND VGND VPWR VPWR sky130_fd_sc_hd__fill_2
XFILLER_18_247 VGND VGND VPWR VPWR sky130_fd_sc_hd__decap_3
Xsb_0__0_.mux_top_track_28.mux_l2_in_0__146 VGND VGND VPWR VPWR net146 sb_0__0_.mux_top_track_28.mux_l2_in_0__146/LO
+ sky130_fd_sc_hd__conb_1
XANTENNA_fanout125_A net62 VGND VGND VPWR VPWR sky130_fd_sc_hd__diode_2
X_131_ sb_0__0_.mux_top_track_0.out VGND VGND VPWR VPWR net115 sky130_fd_sc_hd__clkbuf_2
XFILLER_23_42 VGND VGND VPWR VPWR sky130_fd_sc_hd__decap_4
XFILLER_23_86 VGND VGND VPWR VPWR sky130_fd_sc_hd__decap_4
Xsb_0__0_.mem_top_track_34.sky130_fd_sc_hd__dfrtp_1_0_ clknet_3_0__leaf_prog_clk net284
+ net124 VGND VGND VPWR VPWR sb_0__0_.mem_top_track_34.mem_out\[0\] sky130_fd_sc_hd__dfrtp_1
XFILLER_2_187 VGND VGND VPWR VPWR sky130_fd_sc_hd__decap_4
XFILLER_2_165 VGND VGND VPWR VPWR sky130_fd_sc_hd__fill_1
XFILLER_2_121 VGND VGND VPWR VPWR sky130_ef_sc_hd__decap_12
XANTENNA_input55_A chany_top_in[3] VGND VGND VPWR VPWR sky130_fd_sc_hd__diode_2
XFILLER_0_57 VGND VGND VPWR VPWR sky130_fd_sc_hd__decap_4
XANTENNA__119__A net9 VGND VGND VPWR VPWR sky130_fd_sc_hd__diode_2
XFILLER_9_55 VGND VGND VPWR VPWR sky130_fd_sc_hd__fill_1
XFILLER_9_99 VGND VGND VPWR VPWR sky130_fd_sc_hd__fill_1
XANTENNA_sb_0__0_.mux_right_track_12.mux_l1_in_0__A1 net48 VGND VGND VPWR VPWR sky130_fd_sc_hd__diode_2
Xsb_0__0_.mux_right_track_10.mux_l2_in_0_ net158 sb_0__0_.mux_right_track_10.sky130_fd_sc_hd__mux2_1_0_X
+ sb_0__0_.mem_right_track_10.ccff_tail VGND VGND VPWR VPWR sb_0__0_.mux_right_track_10.sky130_fd_sc_hd__mux2_1_1_X
+ sky130_fd_sc_hd__mux2_1
XANTENNA_sb_0__0_.mux_top_track_16.mux_l1_in_0__A0 net14 VGND VGND VPWR VPWR sky130_fd_sc_hd__diode_2
XFILLER_20_253 VGND VGND VPWR VPWR sky130_fd_sc_hd__fill_2
XFILLER_34_85 VGND VGND VPWR VPWR sky130_fd_sc_hd__decap_3
XFILLER_11_264 VGND VGND VPWR VPWR sky130_fd_sc_hd__fill_2
XFILLER_7_235 VGND VGND VPWR VPWR sky130_fd_sc_hd__fill_2
XFILLER_7_246 VGND VGND VPWR VPWR sky130_fd_sc_hd__fill_2
X_114_ sb_0__0_.mux_top_track_34.out VGND VGND VPWR VPWR net97 sky130_fd_sc_hd__dlymetal6s2s_1
XFILLER_38_128 VGND VGND VPWR VPWR sky130_fd_sc_hd__fill_2
Xsb_0__0_.mux_right_track_2.mux_l1_in_0_ right_bottom_grid_top_width_0_height_0_subtile_1__pin_inpad_0_
+ net53 sb_0__0_.mem_right_track_2.mem_out\[0\] VGND VGND VPWR VPWR sb_0__0_.mux_right_track_2.sky130_fd_sc_hd__mux2_1_0_X
+ sky130_fd_sc_hd__mux2_1
XFILLER_20_21 VGND VGND VPWR VPWR sky130_fd_sc_hd__fill_2
Xhold30 net289 VGND VGND VPWR VPWR net195 sky130_fd_sc_hd__clkdlybuf4s25_1
XFILLER_29_30 VGND VGND VPWR VPWR sky130_fd_sc_hd__decap_4
Xhold74 net379 VGND VGND VPWR VPWR net239 sky130_fd_sc_hd__clkdlybuf4s25_1
Xhold41 net325 VGND VGND VPWR VPWR net206 sky130_fd_sc_hd__clkdlybuf4s50_1
Xhold63 net361 VGND VGND VPWR VPWR net228 sky130_fd_sc_hd__clkdlybuf4s25_1
Xhold52 net349 VGND VGND VPWR VPWR net217 sky130_fd_sc_hd__clkdlybuf4s25_1
XFILLER_35_109 VGND VGND VPWR VPWR sky130_fd_sc_hd__fill_1
XFILLER_28_183 VGND VGND VPWR VPWR sky130_fd_sc_hd__decap_4
XANTENNA_input18_A chanx_right_in[24] VGND VGND VPWR VPWR sky130_fd_sc_hd__diode_2
Xhold85 net170 VGND VGND VPWR VPWR net250 sky130_fd_sc_hd__clkdlybuf4s25_1
Xhold96 sb_0__0_.mem_right_track_34.mem_out\[0\] VGND VGND VPWR VPWR net261 sky130_fd_sc_hd__clkdlybuf4s50_1
XANTENNA_5 net143 VGND VGND VPWR VPWR sky130_fd_sc_hd__diode_2
XFILLER_13_3 VGND VGND VPWR VPWR sky130_fd_sc_hd__decap_4
XFILLER_34_197 VGND VGND VPWR VPWR sky130_fd_sc_hd__fill_2
XFILLER_34_153 VGND VGND VPWR VPWR sky130_fd_sc_hd__fill_1
Xsb_0__0_.mux_right_track_4.sky130_fd_sc_hd__buf_4_0_ sb_0__0_.mux_right_track_4.sky130_fd_sc_hd__mux2_1_1_X
+ VGND VGND VPWR VPWR sb_0__0_.mux_right_track_4.out sky130_fd_sc_hd__clkbuf_1
Xsb_0__0_.mux_top_track_12.mux_l2_in_0_ net141 sb_0__0_.mux_top_track_12.sky130_fd_sc_hd__mux2_1_0_X
+ sb_0__0_.mem_top_track_12.ccff_tail VGND VGND VPWR VPWR sb_0__0_.mux_top_track_12.sky130_fd_sc_hd__mux2_1_1_X
+ sky130_fd_sc_hd__mux2_1
XFILLER_15_21 VGND VGND VPWR VPWR sky130_fd_sc_hd__fill_2
XFILLER_15_32 VGND VGND VPWR VPWR sky130_fd_sc_hd__decap_4
XANTENNA_hold152_A sb_0__0_.mem_right_track_8.mem_out\[0\] VGND VGND VPWR VPWR sky130_fd_sc_hd__diode_2
XFILLER_25_153 VGND VGND VPWR VPWR sky130_fd_sc_hd__fill_2
XFILLER_25_164 VGND VGND VPWR VPWR sky130_fd_sc_hd__fill_2
XFILLER_31_42 VGND VGND VPWR VPWR sky130_fd_sc_hd__decap_4
XFILLER_15_54 VGND VGND VPWR VPWR sky130_fd_sc_hd__fill_2
Xoutput75 net75 VGND VGND VPWR VPWR chanx_right_out[1] sky130_fd_sc_hd__buf_12
Xoutput64 net64 VGND VGND VPWR VPWR chanx_right_out[0] sky130_fd_sc_hd__buf_12
XFILLER_0_230 VGND VGND VPWR VPWR sky130_fd_sc_hd__decap_4
Xoutput97 net97 VGND VGND VPWR VPWR chany_top_out[12] sky130_fd_sc_hd__buf_12
Xoutput86 net86 VGND VGND VPWR VPWR chanx_right_out[2] sky130_fd_sc_hd__buf_12
XFILLER_0_263 VGND VGND VPWR VPWR sky130_fd_sc_hd__decap_3
XFILLER_16_120 VGND VGND VPWR VPWR sky130_fd_sc_hd__decap_4
XFILLER_16_197 VGND VGND VPWR VPWR sky130_fd_sc_hd__fill_2
XTAP_112 VGND VPWR sky130_fd_sc_hd__tapvpwrvgnd_1
XTAP_101 VGND VPWR sky130_fd_sc_hd__tapvpwrvgnd_1
XTAP_123 VGND VPWR sky130_fd_sc_hd__tapvpwrvgnd_1
XTAP_134 VGND VPWR sky130_fd_sc_hd__tapvpwrvgnd_1
XTAP_145 VGND VPWR sky130_fd_sc_hd__tapvpwrvgnd_1
XTAP_156 VGND VPWR sky130_fd_sc_hd__tapvpwrvgnd_1
XTAP_167 VGND VPWR sky130_fd_sc_hd__tapvpwrvgnd_1
XTAP_178 VGND VPWR sky130_fd_sc_hd__tapvpwrvgnd_1
XTAP_189 VGND VPWR sky130_fd_sc_hd__tapvpwrvgnd_1
Xsb_0__0_.mem_right_track_44.sky130_fd_sc_hd__dfrtp_1_1_ clknet_3_4__leaf_prog_clk
+ net340 net124 VGND VGND VPWR VPWR sb_0__0_.mem_right_track_44.ccff_tail sky130_fd_sc_hd__dfrtp_1
Xsb_0__0_.mux_top_track_32.mux_l2_in_0__148 VGND VGND VPWR VPWR net148 sb_0__0_.mux_top_track_32.mux_l2_in_0__148/LO
+ sky130_fd_sc_hd__conb_1
XFILLER_22_123 VGND VGND VPWR VPWR sky130_fd_sc_hd__fill_2
Xsb_0__0_.mux_top_track_0.mux_l1_in_0_ top_left_grid_right_width_0_height_0_subtile_3__pin_inpad_0_
+ top_left_grid_right_width_0_height_0_subtile_0__pin_inpad_0_ sb_0__0_.mem_top_track_0.mem_out\[0\]
+ VGND VGND VPWR VPWR sb_0__0_.mux_top_track_0.sky130_fd_sc_hd__mux2_1_0_X sky130_fd_sc_hd__mux2_1
XFILLER_3_57 VGND VGND VPWR VPWR sky130_fd_sc_hd__decap_4
XFILLER_36_237 VGND VGND VPWR VPWR sky130_fd_sc_hd__fill_2
Xsb_0__0_.mux_right_track_10.sky130_fd_sc_hd__buf_4_0_ sb_0__0_.mux_right_track_10.sky130_fd_sc_hd__mux2_1_1_X
+ VGND VGND VPWR VPWR sb_0__0_.mux_right_track_10.out sky130_fd_sc_hd__clkbuf_1
XFILLER_8_171 VGND VGND VPWR VPWR sky130_fd_sc_hd__decap_3
XFILLER_8_182 VGND VGND VPWR VPWR sky130_fd_sc_hd__decap_4
Xfanout128 net62 VGND VGND VPWR VPWR net128 sky130_fd_sc_hd__clkbuf_8
XFILLER_12_66 VGND VGND VPWR VPWR sky130_fd_sc_hd__fill_1
XFILLER_12_77 VGND VGND VPWR VPWR sky130_fd_sc_hd__fill_2
Xhold182 sb_0__0_.mem_top_track_12.mem_out\[0\] VGND VGND VPWR VPWR net347 sky130_fd_sc_hd__clkdlybuf4s25_1
Xhold193 net224 VGND VGND VPWR VPWR net358 sky130_fd_sc_hd__clkdlybuf4s25_1
Xhold160 sb_0__0_.mem_right_track_10.ccff_head VGND VGND VPWR VPWR net325 sky130_fd_sc_hd__clkdlybuf4s50_1
Xhold171 net215 VGND VGND VPWR VPWR net336 sky130_fd_sc_hd__clkdlybuf4s25_1
XFILLER_5_174 VGND VGND VPWR VPWR sky130_fd_sc_hd__decap_4
X_130_ sb_0__0_.mux_top_track_2.out VGND VGND VPWR VPWR net114 sky130_fd_sc_hd__dlymetal6s2s_1
XFILLER_23_54 VGND VGND VPWR VPWR sky130_fd_sc_hd__fill_2
Xsb_0__0_.mux_right_track_6.mux_l1_in_1__137 VGND VGND VPWR VPWR net137 sb_0__0_.mux_right_track_6.mux_l1_in_1__137/LO
+ sky130_fd_sc_hd__conb_1
XFILLER_23_98 VGND VGND VPWR VPWR sky130_fd_sc_hd__decap_4
XANTENNA_input48_A chany_top_in[24] VGND VGND VPWR VPWR sky130_fd_sc_hd__diode_2
XFILLER_2_133 VGND VGND VPWR VPWR sky130_fd_sc_hd__decap_6
XFILLER_14_240 VGND VGND VPWR VPWR sky130_fd_sc_hd__decap_4
XANTENNA_sb_0__0_.mux_top_track_16.mux_l1_in_0__A1 top_left_grid_right_width_0_height_0_subtile_2__pin_inpad_0_
+ VGND VGND VPWR VPWR sky130_fd_sc_hd__diode_2
X_113_ net3 VGND VGND VPWR VPWR net96 sky130_fd_sc_hd__clkbuf_2
XFILLER_7_225 VGND VGND VPWR VPWR sky130_fd_sc_hd__fill_2
XANTENNA_sb_0__0_.mux_top_track_6.mux_l1_in_0__A0 top_left_grid_right_width_0_height_0_subtile_3__pin_inpad_0_
+ VGND VGND VPWR VPWR sky130_fd_sc_hd__diode_2
Xhold86 sb_0__0_.mem_top_track_6.ccff_tail VGND VGND VPWR VPWR net251 sky130_fd_sc_hd__clkdlybuf4s25_1
XFILLER_29_42 VGND VGND VPWR VPWR sky130_fd_sc_hd__decap_4
Xhold20 net277 VGND VGND VPWR VPWR net185 sky130_fd_sc_hd__dlymetal6s2s_1
Xhold75 net381 VGND VGND VPWR VPWR net240 sky130_fd_sc_hd__clkdlybuf4s25_1
Xhold31 net315 VGND VGND VPWR VPWR net196 sky130_fd_sc_hd__clkdlybuf4s25_1
Xhold64 net367 VGND VGND VPWR VPWR net229 sky130_fd_sc_hd__clkdlybuf4s25_1
Xhold42 net313 VGND VGND VPWR VPWR net207 sky130_fd_sc_hd__clkdlybuf4s25_1
Xhold97 net177 VGND VGND VPWR VPWR net262 sky130_fd_sc_hd__clkdlybuf4s25_1
Xhold53 net345 VGND VGND VPWR VPWR net218 sky130_fd_sc_hd__clkdlybuf4s25_1
XFILLER_28_195 VGND VGND VPWR VPWR sky130_fd_sc_hd__fill_1
XANTENNA_6 net150 VGND VGND VPWR VPWR sky130_fd_sc_hd__diode_2
Xsb_0__0_.mux_right_track_10.mux_l1_in_0_ right_bottom_grid_top_width_0_height_0_subtile_2__pin_inpad_0_
+ net49 sb_0__0_.mem_right_track_10.mem_out\[0\] VGND VGND VPWR VPWR sb_0__0_.mux_right_track_10.sky130_fd_sc_hd__mux2_1_0_X
+ sky130_fd_sc_hd__mux2_1
XFILLER_34_176 VGND VGND VPWR VPWR sky130_fd_sc_hd__decap_4
Xsb_0__0_.mem_right_track_12.sky130_fd_sc_hd__dfrtp_1_1_ clknet_3_6__leaf_prog_clk
+ net278 net128 VGND VGND VPWR VPWR sb_0__0_.mem_right_track_12.ccff_tail sky130_fd_sc_hd__dfrtp_1
XFILLER_40_113 VGND VGND VPWR VPWR sky130_fd_sc_hd__fill_2
XFILLER_25_110 VGND VGND VPWR VPWR sky130_fd_sc_hd__fill_2
XFILLER_31_54 VGND VGND VPWR VPWR sky130_fd_sc_hd__fill_2
Xoutput98 net98 VGND VGND VPWR VPWR chany_top_out[13] sky130_fd_sc_hd__buf_12
Xoutput65 net65 VGND VGND VPWR VPWR chanx_right_out[10] sky130_fd_sc_hd__buf_12
Xoutput87 net87 VGND VGND VPWR VPWR chanx_right_out[3] sky130_fd_sc_hd__buf_12
XFILLER_0_253 VGND VGND VPWR VPWR sky130_fd_sc_hd__fill_2
Xoutput76 net76 VGND VGND VPWR VPWR chanx_right_out[20] sky130_fd_sc_hd__buf_12
XANTENNA_input30_A chanx_right_in[8] VGND VGND VPWR VPWR sky130_fd_sc_hd__diode_2
XFILLER_16_132 VGND VGND VPWR VPWR sky130_fd_sc_hd__fill_2
XFILLER_31_157 VGND VGND VPWR VPWR sky130_fd_sc_hd__decap_4
XFILLER_31_113 VGND VGND VPWR VPWR sky130_fd_sc_hd__decap_3
XFILLER_16_154 VGND VGND VPWR VPWR sky130_fd_sc_hd__decap_4
XTAP_113 VGND VPWR sky130_fd_sc_hd__tapvpwrvgnd_1
XTAP_102 VGND VPWR sky130_fd_sc_hd__tapvpwrvgnd_1
XTAP_124 VGND VPWR sky130_fd_sc_hd__tapvpwrvgnd_1
XTAP_135 VGND VPWR sky130_fd_sc_hd__tapvpwrvgnd_1
XTAP_146 VGND VPWR sky130_fd_sc_hd__tapvpwrvgnd_1
XTAP_157 VGND VPWR sky130_fd_sc_hd__tapvpwrvgnd_1
XTAP_168 VGND VPWR sky130_fd_sc_hd__tapvpwrvgnd_1
XTAP_179 VGND VPWR sky130_fd_sc_hd__tapvpwrvgnd_1
Xsb_0__0_.mem_right_track_44.sky130_fd_sc_hd__dfrtp_1_0_ clknet_3_4__leaf_prog_clk
+ net308 net124 VGND VGND VPWR VPWR sb_0__0_.mem_right_track_44.mem_out\[0\] sky130_fd_sc_hd__dfrtp_1
XFILLER_13_113 VGND VGND VPWR VPWR sky130_fd_sc_hd__fill_2
Xsb_0__0_.mem_right_track_0.sky130_fd_sc_hd__dfrtp_1_1_ clknet_3_6__leaf_prog_clk
+ net233 net128 VGND VGND VPWR VPWR sb_0__0_.mem_right_track_0.ccff_tail sky130_fd_sc_hd__dfrtp_1
Xsb_0__0_.mux_top_track_12.mux_l1_in_0_ net16 top_left_grid_right_width_0_height_0_subtile_0__pin_inpad_0_
+ sb_0__0_.mem_top_track_12.mem_out\[0\] VGND VGND VPWR VPWR sb_0__0_.mux_top_track_12.sky130_fd_sc_hd__mux2_1_0_X
+ sky130_fd_sc_hd__mux2_1
XFILLER_8_194 VGND VGND VPWR VPWR sky130_fd_sc_hd__fill_2
Xfanout129 net62 VGND VGND VPWR VPWR net129 sky130_fd_sc_hd__buf_4
XFILLER_6_109 VGND VGND VPWR VPWR sky130_ef_sc_hd__decap_12
XFILLER_10_138 VGND VGND VPWR VPWR sky130_fd_sc_hd__fill_2
XFILLER_12_12 VGND VGND VPWR VPWR sky130_fd_sc_hd__decap_4
XFILLER_12_34 VGND VGND VPWR VPWR sky130_fd_sc_hd__decap_4
Xhold172 sb_0__0_.mem_top_track_10.mem_out\[0\] VGND VGND VPWR VPWR net337 sky130_fd_sc_hd__clkdlybuf4s50_1
Xhold183 net222 VGND VGND VPWR VPWR net348 sky130_fd_sc_hd__clkdlybuf4s25_1
Xhold150 sb_0__0_.mem_right_track_18.ccff_tail VGND VGND VPWR VPWR net315 sky130_fd_sc_hd__clkdlybuf4s50_1
Xhold161 net206 VGND VGND VPWR VPWR net326 sky130_fd_sc_hd__clkdlybuf4s25_1
Xhold194 sb_0__0_.mem_right_track_10.mem_out\[0\] VGND VGND VPWR VPWR net359 sky130_fd_sc_hd__clkdlybuf4s25_1
XFILLER_37_86 VGND VGND VPWR VPWR sky130_fd_sc_hd__decap_4
XFILLER_33_208 VGND VGND VPWR VPWR sky130_fd_sc_hd__decap_4
Xsb_0__0_.mux_top_track_4.sky130_fd_sc_hd__buf_4_0_ sb_0__0_.mux_top_track_4.sky130_fd_sc_hd__mux2_1_1_X
+ VGND VGND VPWR VPWR sb_0__0_.mux_top_track_4.out sky130_fd_sc_hd__clkbuf_1
XFILLER_5_164 VGND VGND VPWR VPWR sky130_fd_sc_hd__fill_2
XFILLER_5_153 VGND VGND VPWR VPWR sky130_fd_sc_hd__decap_4
XFILLER_5_142 VGND VGND VPWR VPWR sky130_fd_sc_hd__decap_8
XANTENNA_sb_0__0_.mem_right_track_50.sky130_fd_sc_hd__dfrtp_1_1__RESET_B net62 VGND
+ VGND VPWR VPWR sky130_fd_sc_hd__diode_2
Xsb_0__0_.mux_right_track_32.sky130_fd_sc_hd__buf_4_0_ sb_0__0_.mux_right_track_32.sky130_fd_sc_hd__mux2_1_1_X
+ VGND VGND VPWR VPWR sb_0__0_.mux_right_track_32.out sky130_fd_sc_hd__clkbuf_1
XFILLER_3_3 VGND VGND VPWR VPWR sky130_ef_sc_hd__decap_12
XANTENNA_sb_0__0_.mux_right_track_14.mux_l2_in_0__A0 net160 VGND VGND VPWR VPWR sky130_fd_sc_hd__diode_2
XFILLER_0_15 VGND VGND VPWR VPWR sky130_ef_sc_hd__decap_12
XFILLER_9_57 VGND VGND VPWR VPWR sky130_ef_sc_hd__decap_12
XFILLER_36_3 VGND VGND VPWR VPWR sky130_fd_sc_hd__fill_1
XFILLER_20_200 VGND VGND VPWR VPWR sky130_fd_sc_hd__fill_2
XFILLER_20_222 VGND VGND VPWR VPWR sky130_fd_sc_hd__decap_4
XFILLER_18_11 VGND VGND VPWR VPWR sky130_fd_sc_hd__decap_4
Xsb_0__0_.mux_top_track_12.mux_l2_in_0__141 VGND VGND VPWR VPWR net141 sb_0__0_.mux_top_track_12.mux_l2_in_0__141/LO
+ sky130_fd_sc_hd__conb_1
X_112_ net31 VGND VGND VPWR VPWR net95 sky130_fd_sc_hd__clkbuf_2
XFILLER_11_222 VGND VGND VPWR VPWR sky130_fd_sc_hd__fill_2
XFILLER_11_244 VGND VGND VPWR VPWR sky130_fd_sc_hd__decap_4
XANTENNA_input60_A chany_top_in[8] VGND VGND VPWR VPWR sky130_fd_sc_hd__diode_2
XANTENNA_sb_0__0_.mux_right_track_8.mux_l1_in_0__S sb_0__0_.mem_right_track_8.mem_out\[0\]
+ VGND VGND VPWR VPWR sky130_fd_sc_hd__diode_2
XANTENNA_hold49_A net331 VGND VGND VPWR VPWR sky130_fd_sc_hd__diode_2
XANTENNA_sb_0__0_.mux_top_track_6.mux_l1_in_0__A1 top_left_grid_right_width_0_height_0_subtile_0__pin_inpad_0_
+ VGND VGND VPWR VPWR sky130_fd_sc_hd__diode_2
XFILLER_20_89 VGND VGND VPWR VPWR sky130_fd_sc_hd__fill_2
Xhold43 net321 VGND VGND VPWR VPWR net208 sky130_fd_sc_hd__clkdlybuf4s25_1
Xhold21 net279 VGND VGND VPWR VPWR net186 sky130_fd_sc_hd__clkdlybuf4s50_1
XFILLER_29_54 VGND VGND VPWR VPWR sky130_fd_sc_hd__fill_2
Xhold87 net173 VGND VGND VPWR VPWR net252 sky130_fd_sc_hd__clkdlybuf4s50_1
XFILLER_28_141 VGND VGND VPWR VPWR sky130_fd_sc_hd__fill_2
Xhold98 sb_0__0_.mem_top_track_32.mem_out\[0\] VGND VGND VPWR VPWR net263 sky130_fd_sc_hd__clkdlybuf4s25_1
Xhold32 net301 VGND VGND VPWR VPWR net197 sky130_fd_sc_hd__clkdlybuf4s50_1
Xhold65 net363 VGND VGND VPWR VPWR net230 sky130_fd_sc_hd__clkdlybuf4s50_1
Xhold76 net383 VGND VGND VPWR VPWR net241 sky130_fd_sc_hd__clkdlybuf4s25_1
Xhold54 net339 VGND VGND VPWR VPWR net219 sky130_fd_sc_hd__clkdlybuf4s25_1
Xhold10 net253 VGND VGND VPWR VPWR net175 sky130_fd_sc_hd__clkdlybuf4s50_1
XANTENNA_7 net157 VGND VGND VPWR VPWR sky130_fd_sc_hd__diode_2
XFILLER_34_133 VGND VGND VPWR VPWR sky130_fd_sc_hd__fill_1
XFILLER_19_152 VGND VGND VPWR VPWR sky130_fd_sc_hd__fill_2
Xsb_0__0_.mem_right_track_12.sky130_fd_sc_hd__dfrtp_1_0_ clknet_3_7__leaf_prog_clk
+ net330 net128 VGND VGND VPWR VPWR sb_0__0_.mem_right_track_12.mem_out\[0\] sky130_fd_sc_hd__dfrtp_1
Xsb_0__0_.mux_right_track_16.mux_l2_in_0__161 VGND VGND VPWR VPWR net161 sb_0__0_.mux_right_track_16.mux_l2_in_0__161/LO
+ sky130_fd_sc_hd__conb_1
XFILLER_15_89 VGND VGND VPWR VPWR sky130_fd_sc_hd__decap_4
XFILLER_40_169 VGND VGND VPWR VPWR sky130_fd_sc_hd__decap_3
Xoutput99 net99 VGND VGND VPWR VPWR chany_top_out[14] sky130_fd_sc_hd__buf_12
Xoutput88 net88 VGND VGND VPWR VPWR chanx_right_out[4] sky130_fd_sc_hd__buf_12
Xoutput66 net66 VGND VGND VPWR VPWR chanx_right_out[11] sky130_fd_sc_hd__buf_12
Xoutput77 net77 VGND VGND VPWR VPWR chanx_right_out[21] sky130_fd_sc_hd__buf_12
XANTENNA_input23_A chanx_right_in[29] VGND VGND VPWR VPWR sky130_fd_sc_hd__diode_2
XTAP_114 VGND VPWR sky130_fd_sc_hd__tapvpwrvgnd_1
XTAP_103 VGND VPWR sky130_fd_sc_hd__tapvpwrvgnd_1
XFILLER_39_225 VGND VGND VPWR VPWR sky130_fd_sc_hd__fill_2
XTAP_125 VGND VPWR sky130_fd_sc_hd__tapvpwrvgnd_1
XTAP_136 VGND VPWR sky130_fd_sc_hd__tapvpwrvgnd_1
XTAP_147 VGND VPWR sky130_fd_sc_hd__tapvpwrvgnd_1
XTAP_158 VGND VPWR sky130_fd_sc_hd__tapvpwrvgnd_1
XTAP_169 VGND VPWR sky130_fd_sc_hd__tapvpwrvgnd_1
XFILLER_7_90 VGND VGND VPWR VPWR sky130_ef_sc_hd__decap_12
XANTENNA_sb_0__0_.mux_top_track_32.mux_l1_in_0__A1 top_left_grid_right_width_0_height_0_subtile_2__pin_inpad_0_
+ VGND VGND VPWR VPWR sky130_fd_sc_hd__diode_2
Xsb_0__0_.mem_right_track_0.sky130_fd_sc_hd__dfrtp_1_0_ clknet_3_3__leaf_prog_clk
+ net256 net126 VGND VGND VPWR VPWR sb_0__0_.mem_right_track_0.mem_out\[0\] sky130_fd_sc_hd__dfrtp_1
XFILLER_3_15 VGND VGND VPWR VPWR sky130_ef_sc_hd__decap_12
XFILLER_8_151 VGND VGND VPWR VPWR sky130_fd_sc_hd__decap_4
XFILLER_10_117 VGND VGND VPWR VPWR sky130_fd_sc_hd__decap_4
Xsb_0__0_.mux_right_track_34.mux_l2_in_0_ net131 sb_0__0_.mux_right_track_34.sky130_fd_sc_hd__mux2_1_0_X
+ sb_0__0_.mem_right_track_34.ccff_tail VGND VGND VPWR VPWR sb_0__0_.mux_right_track_34.sky130_fd_sc_hd__mux2_1_1_X
+ sky130_fd_sc_hd__mux2_1
Xhold151 net196 VGND VGND VPWR VPWR net316 sky130_fd_sc_hd__clkdlybuf4s50_1
Xhold162 sb_0__0_.mem_right_track_6.ccff_tail VGND VGND VPWR VPWR net327 sky130_fd_sc_hd__clkdlybuf4s50_1
XFILLER_12_46 VGND VGND VPWR VPWR sky130_fd_sc_hd__decap_4
Xhold140 sb_0__0_.mem_top_track_46.mem_out\[0\] VGND VGND VPWR VPWR net305 sky130_fd_sc_hd__clkdlybuf4s25_1
Xhold173 net216 VGND VGND VPWR VPWR net338 sky130_fd_sc_hd__clkdlybuf4s50_1
Xsb_0__0_.mem_right_track_18.sky130_fd_sc_hd__dfrtp_1_1_ clknet_3_5__leaf_prog_clk
+ net364 net125 VGND VGND VPWR VPWR sb_0__0_.mem_right_track_18.ccff_tail sky130_fd_sc_hd__dfrtp_1
Xhold184 sb_0__0_.mem_top_track_8.mem_out\[0\] VGND VGND VPWR VPWR net349 sky130_fd_sc_hd__clkdlybuf4s25_1
Xhold195 net223 VGND VGND VPWR VPWR net360 sky130_fd_sc_hd__clkdlybuf4s50_1
XFILLER_37_54 VGND VGND VPWR VPWR sky130_fd_sc_hd__fill_2
XFILLER_26_250 VGND VGND VPWR VPWR sky130_fd_sc_hd__fill_2
XFILLER_5_198 VGND VGND VPWR VPWR sky130_fd_sc_hd__decap_4
XFILLER_5_187 VGND VGND VPWR VPWR sky130_fd_sc_hd__decap_3
XFILLER_32_264 VGND VGND VPWR VPWR sky130_fd_sc_hd__fill_2
XFILLER_32_253 VGND VGND VPWR VPWR sky130_fd_sc_hd__fill_2
XFILLER_23_231 VGND VGND VPWR VPWR sky130_fd_sc_hd__decap_4
XANTENNA_sb_0__0_.mux_right_track_12.mux_l1_in_0__S sb_0__0_.mem_right_track_12.mem_out\[0\]
+ VGND VGND VPWR VPWR sky130_fd_sc_hd__diode_2
XFILLER_23_264 VGND VGND VPWR VPWR sky130_fd_sc_hd__fill_2
XFILLER_2_168 VGND VGND VPWR VPWR sky130_fd_sc_hd__fill_2
XFILLER_0_27 VGND VGND VPWR VPWR sky130_fd_sc_hd__fill_1
XFILLER_9_69 VGND VGND VPWR VPWR sky130_ef_sc_hd__decap_12
XFILLER_14_264 VGND VGND VPWR VPWR sky130_fd_sc_hd__fill_2
XFILLER_29_3 VGND VGND VPWR VPWR sky130_fd_sc_hd__decap_3
Xsb_0__0_.mem_right_track_6.sky130_fd_sc_hd__dfrtp_1_1_ clknet_3_7__leaf_prog_clk
+ net237 net129 VGND VGND VPWR VPWR sb_0__0_.mem_right_track_6.ccff_tail sky130_fd_sc_hd__dfrtp_1
XFILLER_18_56 VGND VGND VPWR VPWR sky130_fd_sc_hd__decap_4
X_111_ net30 VGND VGND VPWR VPWR net123 sky130_fd_sc_hd__clkbuf_2
XFILLER_7_205 VGND VGND VPWR VPWR sky130_fd_sc_hd__fill_2
XANTENNA_input53_A chany_top_in[29] VGND VGND VPWR VPWR sky130_fd_sc_hd__diode_2
XANTENNA_sb_0__0_.mux_right_track_2.mux_l1_in_0__A0 right_bottom_grid_top_width_0_height_0_subtile_1__pin_inpad_0_
+ VGND VGND VPWR VPWR sky130_fd_sc_hd__diode_2
XFILLER_37_164 VGND VGND VPWR VPWR sky130_fd_sc_hd__fill_2
XANTENNA__072__A net43 VGND VGND VPWR VPWR sky130_fd_sc_hd__diode_2
Xhold22 net293 VGND VGND VPWR VPWR net187 sky130_fd_sc_hd__clkdlybuf4s25_1
Xhold11 net259 VGND VGND VPWR VPWR net176 sky130_fd_sc_hd__clkdlybuf4s25_1
XFILLER_28_197 VGND VGND VPWR VPWR sky130_fd_sc_hd__fill_2
Xhold77 net167 VGND VGND VPWR VPWR net242 sky130_fd_sc_hd__clkdlybuf4s25_1
Xhold33 net311 VGND VGND VPWR VPWR net198 sky130_fd_sc_hd__clkdlybuf4s25_1
Xhold88 sb_0__0_.mem_right_track_30.ccff_tail VGND VGND VPWR VPWR net253 sky130_fd_sc_hd__clkdlybuf4s50_1
Xhold44 net309 VGND VGND VPWR VPWR net209 sky130_fd_sc_hd__clkdlybuf4s25_1
Xhold55 net341 VGND VGND VPWR VPWR net220 sky130_fd_sc_hd__clkdlybuf4s25_1
Xhold66 net369 VGND VGND VPWR VPWR net231 sky130_fd_sc_hd__clkdlybuf4s50_1
Xhold99 net178 VGND VGND VPWR VPWR net264 sky130_fd_sc_hd__clkdlybuf4s25_1
XANTENNA_8 net157 VGND VGND VPWR VPWR sky130_fd_sc_hd__diode_2
XFILLER_6_15 VGND VGND VPWR VPWR sky130_ef_sc_hd__decap_12
XFILLER_34_189 VGND VGND VPWR VPWR sky130_fd_sc_hd__fill_2
Xsb_0__0_.mux_right_track_48.sky130_fd_sc_hd__buf_4_0_ sb_0__0_.mux_right_track_48.sky130_fd_sc_hd__mux2_1_1_X
+ VGND VGND VPWR VPWR sb_0__0_.mux_right_track_48.out sky130_fd_sc_hd__clkbuf_1
XFILLER_40_159 VGND VGND VPWR VPWR sky130_fd_sc_hd__decap_4
XFILLER_15_46 VGND VGND VPWR VPWR sky130_fd_sc_hd__decap_3
XFILLER_15_57 VGND VGND VPWR VPWR sky130_fd_sc_hd__decap_4
XFILLER_15_68 VGND VGND VPWR VPWR sky130_fd_sc_hd__decap_4
XFILLER_31_23 VGND VGND VPWR VPWR sky130_fd_sc_hd__decap_4
XFILLER_0_222 VGND VGND VPWR VPWR sky130_fd_sc_hd__fill_2
Xoutput89 net89 VGND VGND VPWR VPWR chanx_right_out[5] sky130_fd_sc_hd__buf_12
Xoutput67 net67 VGND VGND VPWR VPWR chanx_right_out[12] sky130_fd_sc_hd__buf_12
Xoutput78 net78 VGND VGND VPWR VPWR chanx_right_out[22] sky130_fd_sc_hd__buf_12
XANTENNA_input16_A chanx_right_in[22] VGND VGND VPWR VPWR sky130_fd_sc_hd__diode_2
XFILLER_16_145 VGND VGND VPWR VPWR sky130_fd_sc_hd__fill_1
XFILLER_16_178 VGND VGND VPWR VPWR sky130_fd_sc_hd__decap_4
XTAP_115 VGND VPWR sky130_fd_sc_hd__tapvpwrvgnd_1
XTAP_104 VGND VPWR sky130_fd_sc_hd__tapvpwrvgnd_1
XTAP_126 VGND VPWR sky130_fd_sc_hd__tapvpwrvgnd_1
XTAP_137 VGND VPWR sky130_fd_sc_hd__tapvpwrvgnd_1
XTAP_148 VGND VPWR sky130_fd_sc_hd__tapvpwrvgnd_1
XFILLER_11_3 VGND VGND VPWR VPWR sky130_fd_sc_hd__decap_6
XTAP_159 VGND VPWR sky130_fd_sc_hd__tapvpwrvgnd_1
XANTENNA_sb_0__0_.mem_right_track_4.sky130_fd_sc_hd__dfrtp_1_1__D net332 VGND VGND
+ VPWR VPWR sky130_fd_sc_hd__diode_2
XFILLER_30_181 VGND VGND VPWR VPWR sky130_fd_sc_hd__decap_3