* NGSPICE file created from bottom_right_tile.ext - technology: sky130A

* Black-box entry subcircuit for sky130_ef_sc_hd__decap_12 abstract view
.subckt sky130_ef_sc_hd__decap_12 VGND VNB VPB VPWR
.ends

* Black-box entry subcircuit for sky130_fd_sc_hd__tapvpwrvgnd_1 abstract view
.subckt sky130_fd_sc_hd__tapvpwrvgnd_1 VGND VPWR
.ends

* Black-box entry subcircuit for sky130_fd_sc_hd__decap_3 abstract view
.subckt sky130_fd_sc_hd__decap_3 VGND VNB VPB VPWR
.ends

* Black-box entry subcircuit for sky130_fd_sc_hd__mux2_1 abstract view
.subckt sky130_fd_sc_hd__mux2_1 A0 A1 S VGND VNB VPB VPWR X
.ends

* Black-box entry subcircuit for sky130_fd_sc_hd__diode_2 abstract view
.subckt sky130_fd_sc_hd__diode_2 DIODE VGND VNB VPB VPWR
.ends

* Black-box entry subcircuit for sky130_fd_sc_hd__fill_2 abstract view
.subckt sky130_fd_sc_hd__fill_2 VGND VNB VPB VPWR
.ends

* Black-box entry subcircuit for sky130_fd_sc_hd__decap_4 abstract view
.subckt sky130_fd_sc_hd__decap_4 VGND VNB VPB VPWR
.ends

* Black-box entry subcircuit for sky130_fd_sc_hd__fill_1 abstract view
.subckt sky130_fd_sc_hd__fill_1 VGND VNB VPB VPWR
.ends

* Black-box entry subcircuit for sky130_fd_sc_hd__conb_1 abstract view
.subckt sky130_fd_sc_hd__conb_1 VGND VNB VPB VPWR HI LO
.ends

* Black-box entry subcircuit for sky130_fd_sc_hd__clkbuf_2 abstract view
.subckt sky130_fd_sc_hd__clkbuf_2 A VGND VNB VPB VPWR X
.ends

* Black-box entry subcircuit for sky130_fd_sc_hd__decap_6 abstract view
.subckt sky130_fd_sc_hd__decap_6 VGND VNB VPB VPWR
.ends

* Black-box entry subcircuit for sky130_fd_sc_hd__decap_8 abstract view
.subckt sky130_fd_sc_hd__decap_8 VGND VNB VPB VPWR
.ends

* Black-box entry subcircuit for sky130_fd_sc_hd__dfrtp_1 abstract view
.subckt sky130_fd_sc_hd__dfrtp_1 CLK D RESET_B VGND VNB VPB VPWR Q
.ends

* Black-box entry subcircuit for sky130_fd_sc_hd__dlymetal6s2s_1 abstract view
.subckt sky130_fd_sc_hd__dlymetal6s2s_1 A VGND VNB VPB VPWR X
.ends

* Black-box entry subcircuit for sky130_fd_sc_hd__clkdlybuf4s25_1 abstract view
.subckt sky130_fd_sc_hd__clkdlybuf4s25_1 A VGND VNB VPB VPWR X
.ends

* Black-box entry subcircuit for sky130_fd_sc_hd__clkdlybuf4s50_1 abstract view
.subckt sky130_fd_sc_hd__clkdlybuf4s50_1 A VGND VNB VPB VPWR X
.ends

* Black-box entry subcircuit for sky130_fd_sc_hd__buf_12 abstract view
.subckt sky130_fd_sc_hd__buf_12 A VGND VNB VPB VPWR X
.ends

* Black-box entry subcircuit for sky130_fd_sc_hd__clkbuf_1 abstract view
.subckt sky130_fd_sc_hd__clkbuf_1 A VGND VNB VPB VPWR X
.ends

* Black-box entry subcircuit for sky130_fd_sc_hd__clkbuf_8 abstract view
.subckt sky130_fd_sc_hd__clkbuf_8 A VGND VNB VPB VPWR X
.ends

* Black-box entry subcircuit for sky130_fd_sc_hd__ebufn_8 abstract view
.subckt sky130_fd_sc_hd__ebufn_8 A TE_B VGND VNB VPB VPWR Z
.ends

* Black-box entry subcircuit for sky130_fd_sc_hd__inv_1 abstract view
.subckt sky130_fd_sc_hd__inv_1 A VGND VNB VPB VPWR Y
.ends

* Black-box entry subcircuit for sky130_fd_sc_hd__dfrtp_4 abstract view
.subckt sky130_fd_sc_hd__dfrtp_4 CLK D RESET_B VGND VNB VPB VPWR Q
.ends

* Black-box entry subcircuit for sky130_fd_sc_hd__clkbuf_16 abstract view
.subckt sky130_fd_sc_hd__clkbuf_16 A VGND VNB VPB VPWR X
.ends

* Black-box entry subcircuit for sky130_fd_sc_hd__buf_2 abstract view
.subckt sky130_fd_sc_hd__buf_2 A VGND VNB VPB VPWR X
.ends

* Black-box entry subcircuit for sky130_fd_sc_hd__dfrtp_2 abstract view
.subckt sky130_fd_sc_hd__dfrtp_2 CLK D RESET_B VGND VNB VPB VPWR Q
.ends

* Black-box entry subcircuit for sky130_fd_sc_hd__or2b_2 abstract view
.subckt sky130_fd_sc_hd__or2b_2 A B_N VGND VNB VPB VPWR X
.ends

* Black-box entry subcircuit for sky130_fd_sc_hd__mux2_2 abstract view
.subckt sky130_fd_sc_hd__mux2_2 A0 A1 S VGND VNB VPB VPWR X
.ends

.subckt bottom_right_tile VGND VPWR ccff_head ccff_head_1 ccff_tail ccff_tail_0 chanx_left_in[0]
+ chanx_left_in[10] chanx_left_in[11] chanx_left_in[12] chanx_left_in[13] chanx_left_in[14]
+ chanx_left_in[15] chanx_left_in[16] chanx_left_in[17] chanx_left_in[18] chanx_left_in[19]
+ chanx_left_in[1] chanx_left_in[20] chanx_left_in[21] chanx_left_in[22] chanx_left_in[23]
+ chanx_left_in[24] chanx_left_in[25] chanx_left_in[26] chanx_left_in[27] chanx_left_in[28]
+ chanx_left_in[29] chanx_left_in[2] chanx_left_in[3] chanx_left_in[4] chanx_left_in[5]
+ chanx_left_in[6] chanx_left_in[7] chanx_left_in[8] chanx_left_in[9] chanx_left_out[0]
+ chanx_left_out[10] chanx_left_out[11] chanx_left_out[12] chanx_left_out[13] chanx_left_out[14]
+ chanx_left_out[15] chanx_left_out[16] chanx_left_out[17] chanx_left_out[18] chanx_left_out[19]
+ chanx_left_out[1] chanx_left_out[20] chanx_left_out[21] chanx_left_out[22] chanx_left_out[23]
+ chanx_left_out[24] chanx_left_out[25] chanx_left_out[26] chanx_left_out[27] chanx_left_out[28]
+ chanx_left_out[29] chanx_left_out[2] chanx_left_out[3] chanx_left_out[4] chanx_left_out[5]
+ chanx_left_out[6] chanx_left_out[7] chanx_left_out[8] chanx_left_out[9] chany_top_in[0]
+ chany_top_in[10] chany_top_in[11] chany_top_in[12] chany_top_in[13] chany_top_in[14]
+ chany_top_in[15] chany_top_in[16] chany_top_in[17] chany_top_in[18] chany_top_in[19]
+ chany_top_in[1] chany_top_in[20] chany_top_in[21] chany_top_in[22] chany_top_in[23]
+ chany_top_in[24] chany_top_in[25] chany_top_in[26] chany_top_in[27] chany_top_in[28]
+ chany_top_in[29] chany_top_in[2] chany_top_in[3] chany_top_in[4] chany_top_in[5]
+ chany_top_in[6] chany_top_in[7] chany_top_in[8] chany_top_in[9] chany_top_out[0]
+ chany_top_out[10] chany_top_out[11] chany_top_out[12] chany_top_out[13] chany_top_out[14]
+ chany_top_out[15] chany_top_out[16] chany_top_out[17] chany_top_out[18] chany_top_out[19]
+ chany_top_out[1] chany_top_out[20] chany_top_out[21] chany_top_out[22] chany_top_out[23]
+ chany_top_out[24] chany_top_out[25] chany_top_out[26] chany_top_out[27] chany_top_out[28]
+ chany_top_out[29] chany_top_out[2] chany_top_out[3] chany_top_out[4] chany_top_out[5]
+ chany_top_out[6] chany_top_out[7] chany_top_out[8] chany_top_out[9] gfpga_pad_io_soc_dir[0]
+ gfpga_pad_io_soc_dir[1] gfpga_pad_io_soc_dir[2] gfpga_pad_io_soc_dir[3] gfpga_pad_io_soc_in[0]
+ gfpga_pad_io_soc_in[1] gfpga_pad_io_soc_in[2] gfpga_pad_io_soc_in[3] gfpga_pad_io_soc_out[0]
+ gfpga_pad_io_soc_out[1] gfpga_pad_io_soc_out[2] gfpga_pad_io_soc_out[3] isol_n prog_clk
+ prog_reset reset test_enable top_left_grid_right_width_0_height_0_subtile_0__pin_O_10_
+ top_left_grid_right_width_0_height_0_subtile_0__pin_O_11_ top_left_grid_right_width_0_height_0_subtile_0__pin_O_12_
+ top_left_grid_right_width_0_height_0_subtile_0__pin_O_13_ top_left_grid_right_width_0_height_0_subtile_0__pin_O_14_
+ top_left_grid_right_width_0_height_0_subtile_0__pin_O_15_ top_left_grid_right_width_0_height_0_subtile_0__pin_O_8_
+ top_left_grid_right_width_0_height_0_subtile_0__pin_O_9_ top_right_grid_left_width_0_height_0_subtile_0__pin_inpad_0_
+ top_right_grid_left_width_0_height_0_subtile_1__pin_inpad_0_ top_right_grid_left_width_0_height_0_subtile_2__pin_inpad_0_
+ top_right_grid_left_width_0_height_0_subtile_3__pin_inpad_0_ top_width_0_height_0_subtile_0__pin_inpad_0_
+ top_width_0_height_0_subtile_1__pin_inpad_0_ top_width_0_height_0_subtile_2__pin_inpad_0_
+ top_width_0_height_0_subtile_3__pin_inpad_0_
XFILLER_27_417 VGND VGND VPWR VPWR sky130_ef_sc_hd__decap_12
XTAP_177 VGND VPWR sky130_fd_sc_hd__tapvpwrvgnd_1
XTAP_188 VGND VPWR sky130_fd_sc_hd__tapvpwrvgnd_1
XTAP_199 VGND VPWR sky130_fd_sc_hd__tapvpwrvgnd_1
XFILLER_35_461 VGND VGND VPWR VPWR sky130_ef_sc_hd__decap_12
XFILLER_22_144 VGND VGND VPWR VPWR sky130_fd_sc_hd__decap_3
Xsb_8__0_.mux_top_track_6.mux_l2_in_1_ net180 net25 sb_8__0_.mem_top_track_6.mem_out\[1\]
+ VGND VGND VPWR VPWR sb_8__0_.mux_top_track_6.sky130_fd_sc_hd__mux2_1_3_X sky130_fd_sc_hd__mux2_1
XANTENNA_sb_8__0_.mux_top_track_0.mux_l2_in_1__A1 net24 VGND VGND VPWR VPWR sky130_fd_sc_hd__diode_2
XFILLER_26_96 VGND VGND VPWR VPWR sky130_fd_sc_hd__fill_2
XFILLER_26_85 VGND VGND VPWR VPWR sky130_fd_sc_hd__fill_2
XFILLER_13_144 VGND VGND VPWR VPWR sky130_fd_sc_hd__fill_2
XFILLER_13_166 VGND VGND VPWR VPWR sky130_fd_sc_hd__fill_2
XFILLER_36_225 VGND VGND VPWR VPWR sky130_fd_sc_hd__decap_4
XFILLER_36_203 VGND VGND VPWR VPWR sky130_fd_sc_hd__fill_2
XFILLER_32_475 VGND VGND VPWR VPWR sky130_fd_sc_hd__fill_1
XFILLER_17_461 VGND VGND VPWR VPWR sky130_ef_sc_hd__decap_12
Xsb_8__0_.mux_left_track_19.mux_l2_in_0__143 VGND VGND VPWR VPWR net143 sb_8__0_.mux_left_track_19.mux_l2_in_0__143/LO
+ sky130_fd_sc_hd__conb_1
Xsb_8__0_.mux_top_track_46.sky130_fd_sc_hd__buf_4_0_ sb_8__0_.mux_top_track_46.sky130_fd_sc_hd__mux2_1_2_X
+ VGND VGND VPWR VPWR sb_8__0_.mux_top_track_46.out sky130_fd_sc_hd__clkbuf_2
XFILLER_23_497 VGND VGND VPWR VPWR sky130_fd_sc_hd__decap_6
XFILLER_6_118 VGND VGND VPWR VPWR sky130_fd_sc_hd__decap_8
XFILLER_2_357 VGND VGND VPWR VPWR sky130_fd_sc_hd__decap_6
XFILLER_12_87 VGND VGND VPWR VPWR sky130_fd_sc_hd__fill_2
XFILLER_18_203 VGND VGND VPWR VPWR sky130_fd_sc_hd__decap_3
XFILLER_26_280 VGND VGND VPWR VPWR sky130_fd_sc_hd__decap_4
Xsb_8__0_.mem_top_track_22.sky130_fd_sc_hd__dfrtp_1_0_ clknet_4_9_0_prog_clk net239
+ net68 VGND VGND VPWR VPWR sb_8__0_.mem_top_track_22.mem_out\[0\] sky130_fd_sc_hd__dfrtp_1
XFILLER_14_475 VGND VGND VPWR VPWR sky130_fd_sc_hd__fill_1
XANTENNA__124__A sb_8__0_.mux_left_track_3.out VGND VGND VPWR VPWR sky130_fd_sc_hd__diode_2
XFILLER_20_489 VGND VGND VPWR VPWR sky130_ef_sc_hd__decap_12
XFILLER_20_445 VGND VGND VPWR VPWR sky130_ef_sc_hd__decap_12
XFILLER_20_401 VGND VGND VPWR VPWR sky130_ef_sc_hd__decap_12
XFILLER_28_501 VGND VGND VPWR VPWR sky130_ef_sc_hd__decap_12
Xsb_8__0_.mem_left_track_15.sky130_fd_sc_hd__dfrtp_1_0_ clknet_4_13_0_prog_clk net271
+ net68 VGND VGND VPWR VPWR sb_8__0_.mem_left_track_15.mem_out\[0\] sky130_fd_sc_hd__dfrtp_1
XFILLER_23_250 VGND VGND VPWR VPWR sky130_fd_sc_hd__fill_2
XFILLER_23_97 VGND VGND VPWR VPWR sky130_fd_sc_hd__decap_4
XFILLER_7_405 VGND VGND VPWR VPWR sky130_ef_sc_hd__decap_12
XFILLER_7_449 VGND VGND VPWR VPWR sky130_ef_sc_hd__decap_12
X_131_ sb_8__0_.mux_top_track_48.out VGND VGND VPWR VPWR net134 sky130_fd_sc_hd__dlymetal6s2s_1
XFILLER_38_309 VGND VGND VPWR VPWR sky130_fd_sc_hd__fill_2
XFILLER_2_165 VGND VGND VPWR VPWR sky130_ef_sc_hd__decap_12
XFILLER_2_121 VGND VGND VPWR VPWR sky130_ef_sc_hd__decap_12
XANTENNA_input55_A chany_top_in[2] VGND VGND VPWR VPWR sky130_fd_sc_hd__diode_2
XFILLER_0_57 VGND VGND VPWR VPWR sky130_fd_sc_hd__decap_4
XANTENNA__119__A sb_8__0_.mux_left_track_13.out VGND VGND VPWR VPWR sky130_fd_sc_hd__diode_2
XFILLER_9_88 VGND VGND VPWR VPWR sky130_fd_sc_hd__decap_4
XFILLER_37_397 VGND VGND VPWR VPWR sky130_fd_sc_hd__decap_3
XFILLER_20_264 VGND VGND VPWR VPWR sky130_fd_sc_hd__decap_4
XFILLER_20_253 VGND VGND VPWR VPWR sky130_fd_sc_hd__fill_2
XFILLER_4_419 VGND VGND VPWR VPWR sky130_fd_sc_hd__fill_1
XFILLER_28_342 VGND VGND VPWR VPWR sky130_ef_sc_hd__decap_12
XFILLER_28_320 VGND VGND VPWR VPWR sky130_fd_sc_hd__fill_2
Xsb_8__0_.mem_top_track_4.sky130_fd_sc_hd__dfrtp_1_2_ clknet_4_2_0_prog_clk net283
+ net68 VGND VGND VPWR VPWR sb_8__0_.mem_top_track_4.ccff_tail sky130_fd_sc_hd__dfrtp_1
XFILLER_34_85 VGND VGND VPWR VPWR sky130_fd_sc_hd__fill_2
X_114_ net34 VGND VGND VPWR VPWR net88 sky130_fd_sc_hd__clkbuf_2
XFILLER_3_441 VGND VGND VPWR VPWR sky130_fd_sc_hd__decap_6
XFILLER_7_279 VGND VGND VPWR VPWR sky130_fd_sc_hd__fill_1
XFILLER_3_485 VGND VGND VPWR VPWR sky130_ef_sc_hd__decap_12
Xsb_8__0_.mem_top_track_28.sky130_fd_sc_hd__dfrtp_1_1_ clknet_4_2_0_prog_clk net241
+ net68 VGND VGND VPWR VPWR sb_8__0_.mem_top_track_28.ccff_tail sky130_fd_sc_hd__dfrtp_1
XFILLER_25_323 VGND VGND VPWR VPWR sky130_ef_sc_hd__decap_12
XFILLER_40_359 VGND VGND VPWR VPWR sky130_fd_sc_hd__fill_2
XFILLER_40_337 VGND VGND VPWR VPWR sky130_fd_sc_hd__fill_2
XFILLER_20_21 VGND VGND VPWR VPWR sky130_fd_sc_hd__decap_3
Xhold74 sb_8__0_.mem_left_track_45.ccff_tail VGND VGND VPWR VPWR net264 sky130_fd_sc_hd__clkdlybuf4s25_1
XFILLER_29_41 VGND VGND VPWR VPWR sky130_fd_sc_hd__decap_4
Xhold30 sb_8__0_.mem_top_track_24.mem_out\[0\] VGND VGND VPWR VPWR net220 sky130_fd_sc_hd__clkdlybuf4s50_1
XFILLER_0_477 VGND VGND VPWR VPWR sky130_ef_sc_hd__decap_12
XFILLER_0_433 VGND VGND VPWR VPWR sky130_ef_sc_hd__decap_12
Xhold63 sb_8__0_.mem_top_track_28.ccff_tail VGND VGND VPWR VPWR net253 sky130_fd_sc_hd__clkdlybuf4s25_1
Xhold52 cbx_8__0_.cbx_8__0_.mem_top_ipin_0.ccff_tail VGND VGND VPWR VPWR net242 sky130_fd_sc_hd__clkdlybuf4s25_1
Xhold41 sb_8__0_.mem_top_track_40.ccff_tail VGND VGND VPWR VPWR net231 sky130_fd_sc_hd__clkdlybuf4s50_1
XFILLER_28_161 VGND VGND VPWR VPWR sky130_fd_sc_hd__decap_4
Xhold85 sb_8__0_.mem_top_track_6.mem_out\[1\] VGND VGND VPWR VPWR net275 sky130_fd_sc_hd__clkdlybuf4s25_1
XANTENNA_input18_A chanx_left_in[23] VGND VGND VPWR VPWR sky130_fd_sc_hd__diode_2
Xhold96 cbx_8__0_.cbx_8__0_.mem_top_ipin_0.mem_out\[1\] VGND VGND VPWR VPWR net286
+ sky130_fd_sc_hd__clkdlybuf4s25_1
XFILLER_16_301 VGND VGND VPWR VPWR sky130_fd_sc_hd__decap_6
XFILLER_16_334 VGND VGND VPWR VPWR sky130_fd_sc_hd__fill_2
XFILLER_16_389 VGND VGND VPWR VPWR sky130_ef_sc_hd__decap_12
XFILLER_31_337 VGND VGND VPWR VPWR sky130_fd_sc_hd__fill_2
XFILLER_6_34 VGND VGND VPWR VPWR sky130_fd_sc_hd__decap_4
XANTENNA_sb_8__0_.mux_left_track_11.mux_l1_in_0__S sb_8__0_.mem_left_track_11.mem_out\[0\]
+ VGND VGND VPWR VPWR sky130_fd_sc_hd__diode_2
XTAP_348 VGND VPWR sky130_fd_sc_hd__tapvpwrvgnd_1
XTAP_337 VGND VPWR sky130_fd_sc_hd__tapvpwrvgnd_1
XTAP_326 VGND VPWR sky130_fd_sc_hd__tapvpwrvgnd_1
XTAP_315 VGND VPWR sky130_fd_sc_hd__tapvpwrvgnd_1
XTAP_304 VGND VPWR sky130_fd_sc_hd__tapvpwrvgnd_1
XFILLER_3_293 VGND VGND VPWR VPWR sky130_ef_sc_hd__decap_12
XANTENNA_5 net171 VGND VGND VPWR VPWR sky130_fd_sc_hd__diode_2
XANTENNA__132__A sb_8__0_.mux_top_track_46.out VGND VGND VPWR VPWR sky130_fd_sc_hd__diode_2
XFILLER_39_459 VGND VGND VPWR VPWR sky130_fd_sc_hd__fill_2
XFILLER_39_426 VGND VGND VPWR VPWR sky130_fd_sc_hd__decap_4
XTAP_359 VGND VPWR sky130_fd_sc_hd__tapvpwrvgnd_1
XFILLER_19_183 VGND VGND VPWR VPWR sky130_fd_sc_hd__decap_4
XFILLER_34_197 VGND VGND VPWR VPWR sky130_fd_sc_hd__fill_2
XFILLER_25_175 VGND VGND VPWR VPWR sky130_fd_sc_hd__fill_2
XFILLER_13_315 VGND VGND VPWR VPWR sky130_ef_sc_hd__decap_12
XFILLER_15_32 VGND VGND VPWR VPWR sky130_fd_sc_hd__fill_2
XFILLER_25_186 VGND VGND VPWR VPWR sky130_fd_sc_hd__fill_2
XFILLER_5_503 VGND VGND VPWR VPWR sky130_fd_sc_hd__fill_1
XFILLER_13_337 VGND VGND VPWR VPWR sky130_ef_sc_hd__decap_12
XFILLER_15_54 VGND VGND VPWR VPWR sky130_fd_sc_hd__fill_2
Xsb_8__0_.mux_left_track_49.mux_l2_in_0_ net151 sb_8__0_.mux_left_track_49.sky130_fd_sc_hd__mux2_1_0_X
+ sb_8__0_.mem_left_track_49.ccff_tail VGND VGND VPWR VPWR sb_8__0_.mux_left_track_49.sky130_fd_sc_hd__mux2_1_1_X
+ sky130_fd_sc_hd__mux2_1
XFILLER_5_525 VGND VGND VPWR VPWR sky130_fd_sc_hd__fill_2
Xoutput86 net86 VGND VGND VPWR VPWR chanx_left_out[16] sky130_fd_sc_hd__buf_12
Xoutput97 net97 VGND VGND VPWR VPWR chanx_left_out[26] sky130_fd_sc_hd__buf_12
XFILLER_16_197 VGND VGND VPWR VPWR sky130_fd_sc_hd__decap_3
Xsb_8__0_.mem_left_track_9.sky130_fd_sc_hd__dfrtp_1_0_ clknet_4_13_0_prog_clk net251
+ net68 VGND VGND VPWR VPWR sb_8__0_.mem_left_track_9.mem_out\[0\] sky130_fd_sc_hd__dfrtp_1
XFILLER_8_363 VGND VGND VPWR VPWR sky130_fd_sc_hd__fill_1
XTAP_123 VGND VPWR sky130_fd_sc_hd__tapvpwrvgnd_1
XTAP_112 VGND VPWR sky130_fd_sc_hd__tapvpwrvgnd_1
XTAP_101 VGND VPWR sky130_fd_sc_hd__tapvpwrvgnd_1
XTAP_134 VGND VPWR sky130_fd_sc_hd__tapvpwrvgnd_1
XTAP_145 VGND VPWR sky130_fd_sc_hd__tapvpwrvgnd_1
XTAP_156 VGND VPWR sky130_fd_sc_hd__tapvpwrvgnd_1
XTAP_167 VGND VPWR sky130_fd_sc_hd__tapvpwrvgnd_1
XTAP_178 VGND VPWR sky130_fd_sc_hd__tapvpwrvgnd_1
XTAP_189 VGND VPWR sky130_fd_sc_hd__tapvpwrvgnd_1
XFILLER_39_278 VGND VGND VPWR VPWR sky130_fd_sc_hd__fill_2
XFILLER_35_473 VGND VGND VPWR VPWR sky130_ef_sc_hd__decap_12
XFILLER_27_429 VGND VGND VPWR VPWR sky130_ef_sc_hd__decap_12
Xsb_8__0_.mux_left_track_51.mux_l2_in_0_ net153 sb_8__0_.mux_left_track_51.sky130_fd_sc_hd__mux2_1_0_X
+ cbx_8__0_.cbx_8__0_.ccff_head VGND VGND VPWR VPWR sb_8__0_.mux_left_track_51.sky130_fd_sc_hd__mux2_1_1_X
+ sky130_fd_sc_hd__mux2_1
Xsb_8__0_.mux_top_track_6.mux_l2_in_0_ sb_8__0_.mux_top_track_6.sky130_fd_sc_hd__mux2_1_1_X
+ sb_8__0_.mux_top_track_6.sky130_fd_sc_hd__mux2_1_0_X sb_8__0_.mem_top_track_6.mem_out\[1\]
+ VGND VGND VPWR VPWR sb_8__0_.mux_top_track_6.sky130_fd_sc_hd__mux2_1_2_X sky130_fd_sc_hd__mux2_1
XFILLER_22_167 VGND VGND VPWR VPWR sky130_fd_sc_hd__decap_4
XFILLER_22_112 VGND VGND VPWR VPWR sky130_fd_sc_hd__fill_2
XFILLER_10_307 VGND VGND VPWR VPWR sky130_fd_sc_hd__fill_1
XFILLER_9_138 VGND VGND VPWR VPWR sky130_fd_sc_hd__decap_4
XFILLER_3_57 VGND VGND VPWR VPWR sky130_ef_sc_hd__decap_12
XFILLER_3_35 VGND VGND VPWR VPWR sky130_ef_sc_hd__decap_12
XFILLER_36_237 VGND VGND VPWR VPWR sky130_fd_sc_hd__decap_4
XFILLER_17_473 VGND VGND VPWR VPWR sky130_ef_sc_hd__decap_12
XFILLER_32_421 VGND VGND VPWR VPWR sky130_ef_sc_hd__decap_12
XANTENNA_sb_8__0_.mem_left_track_47.sky130_fd_sc_hd__dfrtp_1_0__RESET_B net68 VGND
+ VGND VPWR VPWR sky130_fd_sc_hd__diode_2
XFILLER_35_281 VGND VGND VPWR VPWR sky130_fd_sc_hd__decap_3
XFILLER_10_159 VGND VGND VPWR VPWR sky130_fd_sc_hd__decap_4
XANTENNA_sb_8__0_.mux_left_track_35.mux_l1_in_0__A0 top_width_0_height_0_subtile_3__pin_inpad_0_
+ VGND VGND VPWR VPWR sky130_fd_sc_hd__diode_2
XANTENNA_sb_8__0_.mux_top_track_4.mux_l1_in_1__A0 top_right_grid_left_width_0_height_0_subtile_3__pin_inpad_0_
+ VGND VGND VPWR VPWR sky130_fd_sc_hd__diode_2
Xcbx_8__0_.cbx_8__0_.mux_top_ipin_3.sky130_fd_sc_hd__buf_4_0_ cbx_8__0_.cbx_8__0_.mux_top_ipin_3.sky130_fd_sc_hd__mux2_1_11_X
+ VGND VGND VPWR VPWR cbx_8__0_.bottom_grid_top_width_0_height_0_subtile_3__pin_outpad_0_
+ sky130_fd_sc_hd__clkbuf_1
XANTENNA_sb_8__0_.mem_left_track_29.sky130_fd_sc_hd__dfrtp_1_0__CLK clknet_4_15_0_prog_clk
+ VGND VGND VPWR VPWR sky130_fd_sc_hd__diode_2
XFILLER_18_226 VGND VGND VPWR VPWR sky130_fd_sc_hd__decap_4
XANTENNA_sb_8__0_.mux_top_track_18.mux_l1_in_0__A0 top_right_grid_left_width_0_height_0_subtile_3__pin_inpad_0_
+ VGND VGND VPWR VPWR sky130_fd_sc_hd__diode_2
XFILLER_14_421 VGND VGND VPWR VPWR sky130_ef_sc_hd__decap_12
Xclkbuf_4_6_0_prog_clk clknet_0_prog_clk VGND VGND VPWR VPWR clknet_4_6_0_prog_clk
+ sky130_fd_sc_hd__clkbuf_8
Xsb_8__0_.mux_top_track_6.mux_l1_in_1_ top_right_grid_left_width_0_height_0_subtile_1__pin_inpad_0_
+ net73 sb_8__0_.mem_top_track_6.mem_out\[0\] VGND VGND VPWR VPWR sb_8__0_.mux_top_track_6.sky130_fd_sc_hd__mux2_1_1_X
+ sky130_fd_sc_hd__mux2_1
XFILLER_1_391 VGND VGND VPWR VPWR sky130_fd_sc_hd__fill_1
XFILLER_17_281 VGND VGND VPWR VPWR sky130_ef_sc_hd__decap_12
XFILLER_20_457 VGND VGND VPWR VPWR sky130_ef_sc_hd__decap_12
XFILLER_20_413 VGND VGND VPWR VPWR sky130_fd_sc_hd__decap_6
Xsb_8__0_.mux_top_track_22.mux_l2_in_0__164 VGND VGND VPWR VPWR net164 sb_8__0_.mux_top_track_22.mux_l2_in_0__164/LO
+ sky130_fd_sc_hd__conb_1
XFILLER_28_513 VGND VGND VPWR VPWR sky130_ef_sc_hd__decap_12
XFILLER_23_54 VGND VGND VPWR VPWR sky130_fd_sc_hd__fill_2
XFILLER_23_21 VGND VGND VPWR VPWR sky130_fd_sc_hd__decap_4
X_130_ sb_8__0_.mux_top_track_50.out VGND VGND VPWR VPWR net133 sky130_fd_sc_hd__clkbuf_2
XFILLER_7_417 VGND VGND VPWR VPWR sky130_ef_sc_hd__decap_12
XANTENNA_input48_A chany_top_in[23] VGND VGND VPWR VPWR sky130_fd_sc_hd__diode_2
XFILLER_2_177 VGND VGND VPWR VPWR sky130_ef_sc_hd__decap_12
XFILLER_2_133 VGND VGND VPWR VPWR sky130_fd_sc_hd__decap_6
XFILLER_9_34 VGND VGND VPWR VPWR sky130_fd_sc_hd__fill_2
XFILLER_25_505 VGND VGND VPWR VPWR sky130_ef_sc_hd__decap_12
XFILLER_40_519 VGND VGND VPWR VPWR sky130_fd_sc_hd__fill_2
XFILLER_37_387 VGND VGND VPWR VPWR sky130_fd_sc_hd__fill_2
Xcbx_8__0_.cbx_8__0_.mux_top_ipin_3.mux_l2_in_3_ net185 net51 cbx_8__0_.cbx_8__0_.mem_top_ipin_3.mem_out\[1\]
+ VGND VGND VPWR VPWR cbx_8__0_.cbx_8__0_.mux_top_ipin_3.sky130_fd_sc_hd__mux2_1_8_X
+ sky130_fd_sc_hd__mux2_1
XFILLER_20_276 VGND VGND VPWR VPWR sky130_ef_sc_hd__decap_12
Xsb_8__0_.mem_top_track_4.sky130_fd_sc_hd__dfrtp_1_1_ clknet_4_8_0_prog_clk net287
+ net68 VGND VGND VPWR VPWR sb_8__0_.mem_top_track_4.mem_out\[1\] sky130_fd_sc_hd__dfrtp_1
XFILLER_28_365 VGND VGND VPWR VPWR sky130_ef_sc_hd__decap_12
XFILLER_28_354 VGND VGND VPWR VPWR sky130_fd_sc_hd__decap_8
XFILLER_18_98 VGND VGND VPWR VPWR sky130_fd_sc_hd__decap_4
X_113_ net35 VGND VGND VPWR VPWR net87 sky130_fd_sc_hd__clkbuf_2
XFILLER_7_225 VGND VGND VPWR VPWR sky130_ef_sc_hd__decap_12
XANTENNA_cbx_8__0_.cbx_8__0_.mux_top_ipin_2.mux_l1_in_4__A0 net43 VGND VGND VPWR VPWR
+ sky130_fd_sc_hd__diode_2
XFILLER_3_497 VGND VGND VPWR VPWR sky130_fd_sc_hd__decap_6
XANTENNA_sb_8__0_.mem_left_track_3.sky130_fd_sc_hd__dfrtp_1_0__RESET_B net68 VGND
+ VGND VPWR VPWR sky130_fd_sc_hd__diode_2
XFILLER_34_379 VGND VGND VPWR VPWR sky130_fd_sc_hd__decap_4
XFILLER_34_335 VGND VGND VPWR VPWR sky130_fd_sc_hd__decap_3
XFILLER_34_302 VGND VGND VPWR VPWR sky130_fd_sc_hd__fill_2
XFILLER_29_107 VGND VGND VPWR VPWR sky130_fd_sc_hd__decap_3
Xsb_8__0_.mem_top_track_28.sky130_fd_sc_hd__dfrtp_1_0_ clknet_4_2_0_prog_clk net235
+ net68 VGND VGND VPWR VPWR sb_8__0_.mem_top_track_28.mem_out\[0\] sky130_fd_sc_hd__dfrtp_1
XFILLER_25_335 VGND VGND VPWR VPWR sky130_fd_sc_hd__fill_1
XFILLER_40_305 VGND VGND VPWR VPWR sky130_fd_sc_hd__decap_3
XFILLER_4_206 VGND VGND VPWR VPWR sky130_fd_sc_hd__fill_2
Xhold86 sb_8__0_.mem_left_track_17.ccff_tail VGND VGND VPWR VPWR net276 sky130_fd_sc_hd__clkdlybuf4s50_1
Xhold53 sb_8__0_.mem_left_track_19.mem_out\[0\] VGND VGND VPWR VPWR net243 sky130_fd_sc_hd__clkdlybuf4s25_1
Xhold75 sb_8__0_.mem_left_track_47.ccff_tail VGND VGND VPWR VPWR net265 sky130_fd_sc_hd__clkdlybuf4s25_1
Xhold20 sb_8__0_.mem_left_track_5.ccff_tail VGND VGND VPWR VPWR net210 sky130_fd_sc_hd__clkdlybuf4s50_1
XFILLER_0_489 VGND VGND VPWR VPWR sky130_ef_sc_hd__decap_12
XFILLER_0_445 VGND VGND VPWR VPWR sky130_fd_sc_hd__decap_3
Xhold64 sb_8__0_.mem_top_track_14.ccff_tail VGND VGND VPWR VPWR net254 sky130_fd_sc_hd__clkdlybuf4s25_1
Xhold42 sb_8__0_.mem_top_track_30.ccff_tail VGND VGND VPWR VPWR net232 sky130_fd_sc_hd__clkdlybuf4s25_1
Xhold97 sb_8__0_.mem_top_track_4.mem_out\[0\] VGND VGND VPWR VPWR net287 sky130_fd_sc_hd__clkdlybuf4s25_1
Xhold31 sb_8__0_.mem_top_track_36.ccff_tail VGND VGND VPWR VPWR net221 sky130_fd_sc_hd__clkdlybuf4s50_1
XFILLER_31_316 VGND VGND VPWR VPWR sky130_fd_sc_hd__decap_4
XFILLER_28_151 VGND VGND VPWR VPWR sky130_fd_sc_hd__fill_2
XANTENNA_6 net171 VGND VGND VPWR VPWR sky130_fd_sc_hd__diode_2
XFILLER_8_501 VGND VGND VPWR VPWR sky130_ef_sc_hd__decap_12
XFILLER_39_405 VGND VGND VPWR VPWR sky130_fd_sc_hd__decap_4
XTAP_349 VGND VPWR sky130_fd_sc_hd__tapvpwrvgnd_1
XTAP_338 VGND VPWR sky130_fd_sc_hd__tapvpwrvgnd_1
XTAP_327 VGND VPWR sky130_fd_sc_hd__tapvpwrvgnd_1
XTAP_316 VGND VPWR sky130_fd_sc_hd__tapvpwrvgnd_1
Xcbx_8__0_.cbx_8__0_.mux_top_ipin_3.mux_l1_in_4_ net45 net31 cbx_8__0_.cbx_8__0_.mem_top_ipin_3.mem_out\[0\]
+ VGND VGND VPWR VPWR cbx_8__0_.cbx_8__0_.mux_top_ipin_3.sky130_fd_sc_hd__mux2_1_4_X
+ sky130_fd_sc_hd__mux2_1
XTAP_305 VGND VPWR sky130_fd_sc_hd__tapvpwrvgnd_1
XFILLER_3_261 VGND VGND VPWR VPWR sky130_ef_sc_hd__decap_12
XANTENNA_output79_A net79 VGND VGND VPWR VPWR sky130_fd_sc_hd__diode_2
XANTENNA_sb_8__0_.mem_left_track_9.sky130_fd_sc_hd__dfrtp_1_0__RESET_B net68 VGND
+ VGND VPWR VPWR sky130_fd_sc_hd__diode_2
XFILLER_30_360 VGND VGND VPWR VPWR sky130_fd_sc_hd__decap_4
XFILLER_40_113 VGND VGND VPWR VPWR sky130_fd_sc_hd__fill_1
XFILLER_25_154 VGND VGND VPWR VPWR sky130_fd_sc_hd__decap_4
XFILLER_25_143 VGND VGND VPWR VPWR sky130_fd_sc_hd__fill_2
XFILLER_13_327 VGND VGND VPWR VPWR sky130_fd_sc_hd__decap_8
XFILLER_13_349 VGND VGND VPWR VPWR sky130_ef_sc_hd__decap_12
XFILLER_40_146 VGND VGND VPWR VPWR sky130_fd_sc_hd__decap_4
XFILLER_31_54 VGND VGND VPWR VPWR sky130_fd_sc_hd__fill_2
XFILLER_31_21 VGND VGND VPWR VPWR sky130_fd_sc_hd__fill_2
XFILLER_21_393 VGND VGND VPWR VPWR sky130_ef_sc_hd__decap_12
XFILLER_15_99 VGND VGND VPWR VPWR sky130_fd_sc_hd__fill_2
Xoutput87 net87 VGND VGND VPWR VPWR chanx_left_out[17] sky130_fd_sc_hd__buf_12
XFILLER_31_87 VGND VGND VPWR VPWR sky130_fd_sc_hd__decap_3
Xoutput98 net98 VGND VGND VPWR VPWR chanx_left_out[27] sky130_fd_sc_hd__buf_12
XFILLER_0_253 VGND VGND VPWR VPWR sky130_ef_sc_hd__decap_12
XANTENNA_input30_A chanx_left_in[7] VGND VGND VPWR VPWR sky130_fd_sc_hd__diode_2
XFILLER_0_297 VGND VGND VPWR VPWR sky130_fd_sc_hd__fill_2
XANTENNA_output117_A net117 VGND VGND VPWR VPWR sky130_fd_sc_hd__diode_2
XFILLER_16_110 VGND VGND VPWR VPWR sky130_fd_sc_hd__decap_4
Xsb_8__0_.mem_top_track_40.sky130_fd_sc_hd__dfrtp_1_1_ clknet_4_5_0_prog_clk net207
+ net68 VGND VGND VPWR VPWR sb_8__0_.mem_top_track_40.ccff_tail sky130_fd_sc_hd__dfrtp_1
XFILLER_31_135 VGND VGND VPWR VPWR sky130_fd_sc_hd__decap_4
XFILLER_31_113 VGND VGND VPWR VPWR sky130_fd_sc_hd__fill_2
Xcbx_8__0_.cbx_8__0_.mux_top_ipin_3.mux_l4_in_0_ cbx_8__0_.cbx_8__0_.mux_top_ipin_3.sky130_fd_sc_hd__mux2_1_10_X
+ cbx_8__0_.cbx_8__0_.mux_top_ipin_3.sky130_fd_sc_hd__mux2_1_9_X net78 VGND VGND VPWR
+ VPWR cbx_8__0_.cbx_8__0_.mux_top_ipin_3.sky130_fd_sc_hd__mux2_1_11_X sky130_fd_sc_hd__mux2_1
XANTENNA__143__A sb_8__0_.mux_top_track_24.out VGND VGND VPWR VPWR sky130_fd_sc_hd__diode_2
XFILLER_39_213 VGND VGND VPWR VPWR sky130_fd_sc_hd__decap_4
XTAP_124 VGND VPWR sky130_fd_sc_hd__tapvpwrvgnd_1
XTAP_113 VGND VPWR sky130_fd_sc_hd__tapvpwrvgnd_1
XTAP_102 VGND VPWR sky130_fd_sc_hd__tapvpwrvgnd_1
XTAP_135 VGND VPWR sky130_fd_sc_hd__tapvpwrvgnd_1
XTAP_146 VGND VPWR sky130_fd_sc_hd__tapvpwrvgnd_1
XTAP_157 VGND VPWR sky130_fd_sc_hd__tapvpwrvgnd_1
XTAP_168 VGND VPWR sky130_fd_sc_hd__tapvpwrvgnd_1
XTAP_179 VGND VPWR sky130_fd_sc_hd__tapvpwrvgnd_1
XFILLER_35_485 VGND VGND VPWR VPWR sky130_ef_sc_hd__decap_12
XFILLER_26_21 VGND VGND VPWR VPWR sky130_fd_sc_hd__decap_3
XFILLER_18_419 VGND VGND VPWR VPWR sky130_fd_sc_hd__fill_1
Xsb_8__0_.mem_left_track_33.sky130_fd_sc_hd__dfrtp_1_1_ clknet_4_15_0_prog_clk net263
+ net68 VGND VGND VPWR VPWR sb_8__0_.mem_left_track_33.ccff_tail sky130_fd_sc_hd__dfrtp_1
Xsb_8__0_.mux_top_track_18.mux_l2_in_0_ sb_8__0_.mux_top_track_18.sky130_fd_sc_hd__mux2_1_1_X
+ sb_8__0_.mux_top_track_18.sky130_fd_sc_hd__mux2_1_0_X sb_8__0_.mem_top_track_18.ccff_tail
+ VGND VGND VPWR VPWR sb_8__0_.mux_top_track_18.sky130_fd_sc_hd__mux2_1_2_X sky130_fd_sc_hd__mux2_1
XFILLER_13_113 VGND VGND VPWR VPWR sky130_fd_sc_hd__fill_2
XFILLER_13_135 VGND VGND VPWR VPWR sky130_fd_sc_hd__fill_2
XFILLER_3_69 VGND VGND VPWR VPWR sky130_ef_sc_hd__decap_12
XFILLER_3_47 VGND VGND VPWR VPWR sky130_fd_sc_hd__decap_8
XFILLER_32_433 VGND VGND VPWR VPWR sky130_ef_sc_hd__decap_12
XFILLER_29_290 VGND VGND VPWR VPWR sky130_fd_sc_hd__decap_3
XFILLER_17_485 VGND VGND VPWR VPWR sky130_ef_sc_hd__decap_12
XFILLER_17_441 VGND VGND VPWR VPWR sky130_fd_sc_hd__decap_6
XFILLER_32_477 VGND VGND VPWR VPWR sky130_ef_sc_hd__decap_12
Xsb_8__0_.mux_top_track_20.mux_l2_in_0_ net163 sb_8__0_.mux_top_track_20.sky130_fd_sc_hd__mux2_1_0_X
+ sb_8__0_.mem_top_track_20.ccff_tail VGND VGND VPWR VPWR sb_8__0_.mux_top_track_20.sky130_fd_sc_hd__mux2_1_1_X
+ sky130_fd_sc_hd__mux2_1
XFILLER_27_238 VGND VGND VPWR VPWR sky130_fd_sc_hd__fill_2
XFILLER_27_227 VGND VGND VPWR VPWR sky130_fd_sc_hd__fill_2
XFILLER_27_205 VGND VGND VPWR VPWR sky130_fd_sc_hd__fill_2
XFILLER_35_293 VGND VGND VPWR VPWR sky130_fd_sc_hd__decap_4
Xsb_8__0_.mux_left_track_49.mux_l1_in_0_ top_width_0_height_0_subtile_2__pin_inpad_0_
+ net48 sb_8__0_.mem_left_track_49.mem_out\[0\] VGND VGND VPWR VPWR sb_8__0_.mux_left_track_49.sky130_fd_sc_hd__mux2_1_0_X
+ sky130_fd_sc_hd__mux2_1
XFILLER_12_45 VGND VGND VPWR VPWR sky130_fd_sc_hd__decap_4
Xcbx_8__0_.cbx_8__0_.mux_top_ipin_3.mux_l3_in_1_ cbx_8__0_.cbx_8__0_.mux_top_ipin_3.sky130_fd_sc_hd__mux2_1_8_X
+ cbx_8__0_.cbx_8__0_.mux_top_ipin_3.sky130_fd_sc_hd__mux2_1_7_X cbx_8__0_.cbx_8__0_.mem_top_ipin_3.mem_out\[2\]
+ VGND VGND VPWR VPWR cbx_8__0_.cbx_8__0_.mux_top_ipin_3.sky130_fd_sc_hd__mux2_1_10_X
+ sky130_fd_sc_hd__mux2_1
XANTENNA_sb_8__0_.mux_top_track_4.mux_l1_in_1__A1 top_right_grid_left_width_0_height_0_subtile_0__pin_inpad_0_
+ VGND VGND VPWR VPWR sky130_fd_sc_hd__diode_2
XANTENNA_sb_8__0_.mux_top_track_18.mux_l1_in_0__A1 net70 VGND VGND VPWR VPWR sky130_fd_sc_hd__diode_2
XFILLER_26_293 VGND VGND VPWR VPWR sky130_fd_sc_hd__decap_4
XFILLER_14_433 VGND VGND VPWR VPWR sky130_ef_sc_hd__decap_12
XFILLER_14_477 VGND VGND VPWR VPWR sky130_ef_sc_hd__decap_12
Xsb_8__0_.mux_left_track_51.mux_l1_in_0_ top_width_0_height_0_subtile_3__pin_inpad_0_
+ net49 sb_8__0_.mem_left_track_51.mem_out\[0\] VGND VGND VPWR VPWR sb_8__0_.mux_left_track_51.sky130_fd_sc_hd__mux2_1_0_X
+ sky130_fd_sc_hd__mux2_1
XANTENNA_sb_8__0_.mux_left_track_45.sky130_fd_sc_hd__buf_4_0__A sb_8__0_.mux_left_track_45.sky130_fd_sc_hd__mux2_1_1_X
+ VGND VGND VPWR VPWR sky130_fd_sc_hd__diode_2
XFILLER_37_525 VGND VGND VPWR VPWR sky130_fd_sc_hd__fill_2
XFILLER_37_503 VGND VGND VPWR VPWR sky130_fd_sc_hd__fill_1
Xsb_8__0_.mux_top_track_6.mux_l1_in_0_ net70 net75 sb_8__0_.mem_top_track_6.mem_out\[0\]
+ VGND VGND VPWR VPWR sb_8__0_.mux_top_track_6.sky130_fd_sc_hd__mux2_1_0_X sky130_fd_sc_hd__mux2_1
XANTENNA_sb_8__0_.mem_left_track_45.sky130_fd_sc_hd__dfrtp_1_1__RESET_B net68 VGND
+ VGND VPWR VPWR sky130_fd_sc_hd__diode_2
XFILLER_17_293 VGND VGND VPWR VPWR sky130_ef_sc_hd__decap_12
XANTENNA_sb_8__0_.mux_left_track_9.mux_l1_in_0__S sb_8__0_.mem_left_track_9.mem_out\[0\]
+ VGND VGND VPWR VPWR sky130_fd_sc_hd__diode_2
XFILLER_20_469 VGND VGND VPWR VPWR sky130_fd_sc_hd__decap_6
Xsb_8__0_.mux_top_track_18.mux_l1_in_1_ net161 net31 sb_8__0_.mem_top_track_18.mem_out\[0\]
+ VGND VGND VPWR VPWR sb_8__0_.mux_top_track_18.sky130_fd_sc_hd__mux2_1_1_X sky130_fd_sc_hd__mux2_1
XFILLER_28_525 VGND VGND VPWR VPWR sky130_fd_sc_hd__fill_2
XFILLER_7_429 VGND VGND VPWR VPWR sky130_ef_sc_hd__decap_12
XFILLER_11_447 VGND VGND VPWR VPWR sky130_fd_sc_hd__fill_1
Xsb_8__0_.mux_left_track_49.mux_l2_in_0__151 VGND VGND VPWR VPWR net151 sb_8__0_.mux_left_track_49.mux_l2_in_0__151/LO
+ sky130_fd_sc_hd__conb_1