* NGSPICE file created from cbx_1__2_.ext - technology: sky130A

* Black-box entry subcircuit for sky130_fd_sc_hd__dfxtp_1 abstract view
.subckt sky130_fd_sc_hd__dfxtp_1 CLK D VGND VNB VPB VPWR Q
.ends

* Black-box entry subcircuit for sky130_fd_sc_hd__conb_1 abstract view
.subckt sky130_fd_sc_hd__conb_1 VGND VNB VPB VPWR HI LO
.ends

* Black-box entry subcircuit for sky130_fd_sc_hd__mux2_1 abstract view
.subckt sky130_fd_sc_hd__mux2_1 A0 A1 S VGND VNB VPB VPWR X
.ends

* Black-box entry subcircuit for sky130_fd_sc_hd__clkbuf_1 abstract view
.subckt sky130_fd_sc_hd__clkbuf_1 A VGND VNB VPB VPWR X
.ends

* Black-box entry subcircuit for sky130_fd_sc_hd__diode_2 abstract view
.subckt sky130_fd_sc_hd__diode_2 DIODE VGND VNB VPB VPWR
.ends

* Black-box entry subcircuit for sky130_fd_sc_hd__fill_1 abstract view
.subckt sky130_fd_sc_hd__fill_1 VGND VNB VPB VPWR
.ends

* Black-box entry subcircuit for sky130_fd_sc_hd__decap_3 abstract view
.subckt sky130_fd_sc_hd__decap_3 VGND VNB VPB VPWR
.ends

* Black-box entry subcircuit for sky130_fd_sc_hd__buf_2 abstract view
.subckt sky130_fd_sc_hd__buf_2 A VGND VNB VPB VPWR X
.ends

* Black-box entry subcircuit for sky130_fd_sc_hd__decap_8 abstract view
.subckt sky130_fd_sc_hd__decap_8 VGND VNB VPB VPWR
.ends

* Black-box entry subcircuit for sky130_fd_sc_hd__tapvpwrvgnd_1 abstract view
.subckt sky130_fd_sc_hd__tapvpwrvgnd_1 VGND VPWR
.ends

* Black-box entry subcircuit for sky130_fd_sc_hd__fill_2 abstract view
.subckt sky130_fd_sc_hd__fill_2 VGND VNB VPB VPWR
.ends

* Black-box entry subcircuit for sky130_ef_sc_hd__decap_12 abstract view
.subckt sky130_ef_sc_hd__decap_12 VGND VPWR VPB VNB
.ends

* Black-box entry subcircuit for sky130_fd_sc_hd__buf_8 abstract view
.subckt sky130_fd_sc_hd__buf_8 A VGND VNB VPB VPWR X
.ends

* Black-box entry subcircuit for sky130_fd_sc_hd__decap_6 abstract view
.subckt sky130_fd_sc_hd__decap_6 VGND VNB VPB VPWR
.ends

* Black-box entry subcircuit for sky130_fd_sc_hd__decap_4 abstract view
.subckt sky130_fd_sc_hd__decap_4 VGND VNB VPB VPWR
.ends

* Black-box entry subcircuit for sky130_fd_sc_hd__clkbuf_2 abstract view
.subckt sky130_fd_sc_hd__clkbuf_2 A VGND VNB VPB VPWR X
.ends

* Black-box entry subcircuit for sky130_fd_sc_hd__inv_1 abstract view
.subckt sky130_fd_sc_hd__inv_1 A VGND VNB VPB VPWR Y
.ends

* Black-box entry subcircuit for sky130_fd_sc_hd__dlymetal6s2s_1 abstract view
.subckt sky130_fd_sc_hd__dlymetal6s2s_1 A VGND VNB VPB VPWR X
.ends

* Black-box entry subcircuit for sky130_fd_sc_hd__ebufn_8 abstract view
.subckt sky130_fd_sc_hd__ebufn_8 A TE_B VGND VNB VPB VPWR Z
.ends

* Black-box entry subcircuit for sky130_fd_sc_hd__buf_4 abstract view
.subckt sky130_fd_sc_hd__buf_4 A VGND VNB VPB VPWR X
.ends

* Black-box entry subcircuit for sky130_fd_sc_hd__dfxtp_2 abstract view
.subckt sky130_fd_sc_hd__dfxtp_2 CLK D VGND VNB VPB VPWR Q
.ends

* Black-box entry subcircuit for sky130_fd_sc_hd__or2b_2 abstract view
.subckt sky130_fd_sc_hd__or2b_2 A B_N VGND VNB VPB VPWR X
.ends

.subckt cbx_1__2_ IO_ISOL_N SC_IN_BOT SC_IN_TOP SC_OUT_BOT SC_OUT_TOP VGND VPWR bottom_grid_pin_0_
+ bottom_grid_pin_10_ bottom_grid_pin_11_ bottom_grid_pin_12_ bottom_grid_pin_13_
+ bottom_grid_pin_14_ bottom_grid_pin_15_ bottom_grid_pin_1_ bottom_grid_pin_2_ bottom_grid_pin_3_
+ bottom_grid_pin_4_ bottom_grid_pin_5_ bottom_grid_pin_6_ bottom_grid_pin_7_ bottom_grid_pin_8_
+ bottom_grid_pin_9_ bottom_width_0_height_0__pin_0_ bottom_width_0_height_0__pin_1_lower
+ bottom_width_0_height_0__pin_1_upper ccff_head ccff_tail chanx_left_in[0] chanx_left_in[10]
+ chanx_left_in[11] chanx_left_in[12] chanx_left_in[13] chanx_left_in[14] chanx_left_in[15]
+ chanx_left_in[16] chanx_left_in[17] chanx_left_in[18] chanx_left_in[19] chanx_left_in[1]
+ chanx_left_in[2] chanx_left_in[3] chanx_left_in[4] chanx_left_in[5] chanx_left_in[6]
+ chanx_left_in[7] chanx_left_in[8] chanx_left_in[9] chanx_left_out[0] chanx_left_out[10]
+ chanx_left_out[11] chanx_left_out[12] chanx_left_out[13] chanx_left_out[14] chanx_left_out[15]
+ chanx_left_out[16] chanx_left_out[17] chanx_left_out[18] chanx_left_out[19] chanx_left_out[1]
+ chanx_left_out[2] chanx_left_out[3] chanx_left_out[4] chanx_left_out[5] chanx_left_out[6]
+ chanx_left_out[7] chanx_left_out[8] chanx_left_out[9] chanx_right_in[0] chanx_right_in[10]
+ chanx_right_in[11] chanx_right_in[12] chanx_right_in[13] chanx_right_in[14] chanx_right_in[15]
+ chanx_right_in[16] chanx_right_in[17] chanx_right_in[18] chanx_right_in[19] chanx_right_in[1]
+ chanx_right_in[2] chanx_right_in[3] chanx_right_in[4] chanx_right_in[5] chanx_right_in[6]
+ chanx_right_in[7] chanx_right_in[8] chanx_right_in[9] chanx_right_out[0] chanx_right_out[10]
+ chanx_right_out[11] chanx_right_out[12] chanx_right_out[13] chanx_right_out[14]
+ chanx_right_out[15] chanx_right_out[16] chanx_right_out[17] chanx_right_out[18]
+ chanx_right_out[19] chanx_right_out[1] chanx_right_out[2] chanx_right_out[3] chanx_right_out[4]
+ chanx_right_out[5] chanx_right_out[6] chanx_right_out[7] chanx_right_out[8] chanx_right_out[9]
+ gfpga_pad_EMBEDDED_IO_HD_SOC_DIR gfpga_pad_EMBEDDED_IO_HD_SOC_IN gfpga_pad_EMBEDDED_IO_HD_SOC_OUT
+ prog_clk_0_S_in prog_clk_0_W_out top_grid_pin_0_
Xmem_top_ipin_8.sky130_fd_sc_hd__dfxtp_1_0_ prog_clk_0_FTB00/X mux_top_ipin_7.mux_l4_in_0_/S
+ VGND VGND VPWR VPWR mux_top_ipin_8.mux_l1_in_2_/S sky130_fd_sc_hd__dfxtp_1
Xmux_top_ipin_6.mux_l2_in_3__128 VGND VGND VPWR VPWR mux_top_ipin_6.mux_l2_in_3_/A0
+ mux_top_ipin_6.mux_l2_in_3__128/LO sky130_fd_sc_hd__conb_1
Xmux_top_ipin_13.mux_l3_in_0_ mux_top_ipin_13.mux_l2_in_1_/X mux_top_ipin_13.mux_l2_in_0_/X
+ mux_top_ipin_13.mux_l3_in_1_/S VGND VGND VPWR VPWR mux_top_ipin_13.mux_l3_in_0_/X
+ sky130_fd_sc_hd__mux2_1
X_66_ _66_/A VGND VGND VPWR VPWR _66_/X sky130_fd_sc_hd__clkbuf_1
Xmux_top_ipin_6.mux_l2_in_0_ repeater121/X mux_top_ipin_6.mux_l1_in_0_/X mux_top_ipin_6.mux_l2_in_3_/S
+ VGND VGND VPWR VPWR mux_top_ipin_6.mux_l2_in_0_/X sky130_fd_sc_hd__mux2_1
XANTENNA_mux_top_ipin_10.mux_l2_in_2__A1 _44_/A VGND VGND VPWR VPWR sky130_fd_sc_hd__diode_2
XFILLER_9_55 VGND VGND VPWR VPWR sky130_fd_sc_hd__fill_1
X_49_ _49_/A VGND VGND VPWR VPWR _49_/X sky130_fd_sc_hd__clkbuf_1
Xmux_top_ipin_11.mux_l2_in_3__136 VGND VGND VPWR VPWR mux_top_ipin_11.mux_l2_in_3_/A0
+ mux_top_ipin_11.mux_l2_in_3__136/LO sky130_fd_sc_hd__conb_1
XANTENNA_mux_top_ipin_5.mux_l2_in_1__A1 repeater115/X VGND VGND VPWR VPWR sky130_fd_sc_hd__diode_2
Xmux_top_ipin_13.mux_l2_in_1_ _67_/A input38/X mux_top_ipin_13.mux_l2_in_3_/S VGND
+ VGND VPWR VPWR mux_top_ipin_13.mux_l2_in_1_/X sky130_fd_sc_hd__mux2_1
XANTENNA_mux_top_ipin_3.mux_l2_in_3__A1 _51_/A VGND VGND VPWR VPWR sky130_fd_sc_hd__diode_2
XANTENNA_input18_A chanx_left_in[2] VGND VGND VPWR VPWR sky130_fd_sc_hd__diode_2
XFILLER_17_109 VGND VGND VPWR VPWR sky130_fd_sc_hd__decap_3
XANTENNA_mux_top_ipin_0.mux_l1_in_2__A0 _42_/A VGND VGND VPWR VPWR sky130_fd_sc_hd__diode_2
Xoutput64 output64/A VGND VGND VPWR VPWR bottom_grid_pin_9_ sky130_fd_sc_hd__buf_2
Xoutput53 output53/A VGND VGND VPWR VPWR bottom_grid_pin_13_ sky130_fd_sc_hd__buf_2
Xoutput86 _46_/X VGND VGND VPWR VPWR chanx_left_out[9] sky130_fd_sc_hd__buf_2
Xoutput75 _54_/X VGND VGND VPWR VPWR chanx_left_out[17] sky130_fd_sc_hd__buf_2
Xoutput97 _76_/X VGND VGND VPWR VPWR chanx_right_out[19] sky130_fd_sc_hd__buf_2
XFILLER_22_101 VGND VGND VPWR VPWR sky130_fd_sc_hd__decap_8
XTAP_112 VGND VPWR sky130_fd_sc_hd__tapvpwrvgnd_1
XTAP_101 VGND VPWR sky130_fd_sc_hd__tapvpwrvgnd_1
Xmux_top_ipin_1.mux_l1_in_0_ _37_/A repeater111/X mux_top_ipin_1.mux_l1_in_0_/S VGND
+ VGND VPWR VPWR mux_top_ipin_1.mux_l1_in_0_/X sky130_fd_sc_hd__mux2_1
XFILLER_13_167 VGND VGND VPWR VPWR sky130_fd_sc_hd__fill_1
XANTENNA_mux_top_ipin_0.mux_l2_in_1__A0 _68_/A VGND VGND VPWR VPWR sky130_fd_sc_hd__diode_2
X_65_ _65_/A VGND VGND VPWR VPWR _65_/X sky130_fd_sc_hd__clkbuf_1
XANTENNA_prog_clk_0_W_FTB01_A prog_clk_0_S_in VGND VGND VPWR VPWR sky130_fd_sc_hd__diode_2
X_48_ _48_/A VGND VGND VPWR VPWR _48_/X sky130_fd_sc_hd__clkbuf_1
Xmux_top_ipin_13.mux_l2_in_0_ _59_/A mux_top_ipin_13.mux_l1_in_0_/X mux_top_ipin_13.mux_l2_in_3_/S
+ VGND VGND VPWR VPWR mux_top_ipin_13.mux_l2_in_0_/X sky130_fd_sc_hd__mux2_1
Xmux_top_ipin_6.mux_l1_in_0_ repeater117/X repeater125/X mux_top_ipin_6.mux_l1_in_0_/S
+ VGND VGND VPWR VPWR mux_top_ipin_6.mux_l1_in_0_/X sky130_fd_sc_hd__mux2_1
XFILLER_20_55 VGND VGND VPWR VPWR sky130_fd_sc_hd__fill_1
XFILLER_19_173 VGND VGND VPWR VPWR sky130_fd_sc_hd__fill_1
XANTENNA_mux_top_ipin_14.mux_l2_in_1__A0 _68_/A VGND VGND VPWR VPWR sky130_fd_sc_hd__diode_2
XANTENNA_input30_A chanx_right_in[13] VGND VGND VPWR VPWR sky130_fd_sc_hd__diode_2
Xoutput54 output54/A VGND VGND VPWR VPWR bottom_grid_pin_14_ sky130_fd_sc_hd__buf_2
Xoutput65 _36_/X VGND VGND VPWR VPWR bottom_width_0_height_0__pin_1_upper sky130_fd_sc_hd__buf_2
Xoutput87 _57_/X VGND VGND VPWR VPWR chanx_right_out[0] sky130_fd_sc_hd__buf_2
Xoutput98 _58_/X VGND VGND VPWR VPWR chanx_right_out[1] sky130_fd_sc_hd__buf_2
Xoutput76 _55_/X VGND VGND VPWR VPWR chanx_left_out[18] sky130_fd_sc_hd__buf_2
XFILLER_22_113 VGND VGND VPWR VPWR sky130_fd_sc_hd__decap_8
XTAP_113 VGND VPWR sky130_fd_sc_hd__tapvpwrvgnd_1
XTAP_102 VGND VPWR sky130_fd_sc_hd__tapvpwrvgnd_1
Xmem_bottom_ipin_0.sky130_fd_sc_hd__dfxtp_1_3_ prog_clk_0_FTB00/X mux_bottom_ipin_0.mux_l3_in_1_/S
+ VGND VGND VPWR VPWR mux_bottom_ipin_0.mux_l4_in_0_/S sky130_fd_sc_hd__dfxtp_1
XANTENNA_mux_top_ipin_7.mux_l2_in_2__A0 _75_/A VGND VGND VPWR VPWR sky130_fd_sc_hd__diode_2
XFILLER_10_127 VGND VGND VPWR VPWR sky130_fd_sc_hd__decap_8
X_64_ _64_/A VGND VGND VPWR VPWR _64_/X sky130_fd_sc_hd__clkbuf_1
XFILLER_2_112 VGND VGND VPWR VPWR sky130_fd_sc_hd__fill_1
Xmux_top_ipin_4.sky130_fd_sc_hd__buf_4_0_ mux_top_ipin_4.mux_l4_in_0_/X VGND VGND
+ VPWR VPWR output59/A sky130_fd_sc_hd__clkbuf_1
X_47_ _47_/A VGND VGND VPWR VPWR _47_/X sky130_fd_sc_hd__clkbuf_1
XFILLER_9_57 VGND VGND VPWR VPWR sky130_fd_sc_hd__fill_2
XFILLER_19_141 VGND VPWR VPWR VGND sky130_ef_sc_hd__decap_12
Xmux_top_ipin_13.mux_l1_in_0_ input26/X _57_/A mux_top_ipin_13.mux_l1_in_0_/S VGND
+ VGND VPWR VPWR mux_top_ipin_13.mux_l1_in_0_/X sky130_fd_sc_hd__mux2_1
Xoutput66 output66/A VGND VGND VPWR VPWR ccff_tail sky130_fd_sc_hd__buf_2
XANTENNA_input23_A chanx_left_in[7] VGND VGND VPWR VPWR sky130_fd_sc_hd__diode_2
Xoutput77 _56_/X VGND VGND VPWR VPWR chanx_left_out[19] sky130_fd_sc_hd__buf_2
Xoutput99 _59_/X VGND VGND VPWR VPWR chanx_right_out[2] sky130_fd_sc_hd__buf_2
Xoutput55 output55/A VGND VGND VPWR VPWR bottom_grid_pin_15_ sky130_fd_sc_hd__buf_2
Xoutput88 _67_/X VGND VGND VPWR VPWR chanx_right_out[10] sky130_fd_sc_hd__buf_2
XFILLER_22_125 VGND VPWR VPWR VGND sky130_ef_sc_hd__decap_12
XTAP_114 VGND VPWR sky130_fd_sc_hd__tapvpwrvgnd_1
XTAP_103 VGND VPWR sky130_fd_sc_hd__tapvpwrvgnd_1
Xmem_bottom_ipin_0.sky130_fd_sc_hd__dfxtp_1_2_ prog_clk_0_FTB00/X mux_bottom_ipin_0.mux_l2_in_3_/S
+ VGND VGND VPWR VPWR mux_bottom_ipin_0.mux_l3_in_1_/S sky130_fd_sc_hd__dfxtp_1
XFILLER_22_169 VGND VGND VPWR VPWR sky130_fd_sc_hd__fill_1
XANTENNA_mux_top_ipin_7.mux_l2_in_2__A1 _49_/A VGND VGND VPWR VPWR sky130_fd_sc_hd__diode_2
X_63_ _63_/A VGND VGND VPWR VPWR _63_/X sky130_fd_sc_hd__clkbuf_1
Xprog_clk_0_FTB00 prog_clk_0_S_in VGND VGND VPWR VPWR prog_clk_0_FTB00/X sky130_fd_sc_hd__buf_8
X_46_ _46_/A VGND VGND VPWR VPWR _46_/X sky130_fd_sc_hd__clkbuf_1
XFILLER_18_78 VGND VGND VPWR VPWR sky130_fd_sc_hd__decap_6
Xmux_top_ipin_11.sky130_fd_sc_hd__buf_4_0_ mux_top_ipin_11.mux_l4_in_0_/X VGND VGND
+ VPWR VPWR output51/A sky130_fd_sc_hd__clkbuf_1
Xmux_bottom_ipin_0.sky130_fd_sc_hd__buf_4_0_ mux_bottom_ipin_0.mux_l4_in_0_/X VGND
+ VGND VPWR VPWR output109/A sky130_fd_sc_hd__clkbuf_1
XFILLER_19_153 VGND VGND VPWR VPWR sky130_fd_sc_hd__decap_4
XFILLER_15_46 VGND VGND VPWR VPWR sky130_fd_sc_hd__fill_1
Xoutput78 _38_/X VGND VGND VPWR VPWR chanx_left_out[1] sky130_fd_sc_hd__buf_2
Xoutput56 output56/A VGND VGND VPWR VPWR bottom_grid_pin_1_ sky130_fd_sc_hd__buf_2
Xoutput67 _37_/X VGND VGND VPWR VPWR chanx_left_out[0] sky130_fd_sc_hd__buf_2
Xoutput89 _68_/X VGND VGND VPWR VPWR chanx_right_out[11] sky130_fd_sc_hd__buf_2
XANTENNA_mux_top_ipin_2.mux_l2_in_2__A0 _72_/A VGND VGND VPWR VPWR sky130_fd_sc_hd__diode_2
XANTENNA_input16_A chanx_left_in[19] VGND VGND VPWR VPWR sky130_fd_sc_hd__diode_2
XTAP_115 VGND VPWR sky130_fd_sc_hd__tapvpwrvgnd_1
XTAP_104 VGND VPWR sky130_fd_sc_hd__tapvpwrvgnd_1
Xmem_bottom_ipin_0.sky130_fd_sc_hd__dfxtp_1_1_ prog_clk_0_FTB00/X mux_bottom_ipin_0.mux_l1_in_2_/S
+ VGND VGND VPWR VPWR mux_bottom_ipin_0.mux_l2_in_3_/S sky130_fd_sc_hd__dfxtp_1
XFILLER_22_137 VGND VGND VPWR VPWR sky130_fd_sc_hd__decap_3
XANTENNA_input8_A chanx_left_in[11] VGND VGND VPWR VPWR sky130_fd_sc_hd__diode_2
Xmux_top_ipin_2.mux_l2_in_3_ mux_top_ipin_2.mux_l2_in_3_/A0 _52_/A mux_top_ipin_2.mux_l2_in_3_/S
+ VGND VGND VPWR VPWR mux_top_ipin_2.mux_l2_in_3_/X sky130_fd_sc_hd__mux2_1
XFILLER_12_58 VGND VGND VPWR VPWR sky130_fd_sc_hd__fill_1
X_62_ _62_/A VGND VGND VPWR VPWR _62_/X sky130_fd_sc_hd__clkbuf_1
X_45_ _45_/A VGND VGND VPWR VPWR _45_/X sky130_fd_sc_hd__clkbuf_1
Xmux_top_ipin_2.mux_l4_in_0_ mux_top_ipin_2.mux_l3_in_1_/X mux_top_ipin_2.mux_l3_in_0_/X
+ mux_top_ipin_2.mux_l4_in_0_/S VGND VGND VPWR VPWR mux_top_ipin_2.mux_l4_in_0_/X
+ sky130_fd_sc_hd__mux2_1
XANTENNA_input46_A gfpga_pad_EMBEDDED_IO_HD_SOC_IN VGND VGND VPWR VPWR sky130_fd_sc_hd__diode_2
Xmux_top_ipin_7.mux_l2_in_3_ mux_top_ipin_7.mux_l2_in_3_/A0 _55_/A mux_top_ipin_7.mux_l2_in_3_/S
+ VGND VGND VPWR VPWR mux_top_ipin_7.mux_l2_in_3_/X sky130_fd_sc_hd__mux2_1
XFILLER_13_7 VGND VGND VPWR VPWR sky130_fd_sc_hd__fill_1
Xmux_top_ipin_2.mux_l3_in_1_ mux_top_ipin_2.mux_l2_in_3_/X mux_top_ipin_2.mux_l2_in_2_/X
+ mux_top_ipin_2.mux_l3_in_1_/S VGND VGND VPWR VPWR mux_top_ipin_2.mux_l3_in_1_/X
+ sky130_fd_sc_hd__mux2_1
XFILLER_10_91 VGND VGND VPWR VPWR sky130_fd_sc_hd__fill_1
Xoutput57 output57/A VGND VGND VPWR VPWR bottom_grid_pin_2_ sky130_fd_sc_hd__buf_2
XANTENNA_mux_top_ipin_2.mux_l2_in_2__A1 _44_/A VGND VGND VPWR VPWR sky130_fd_sc_hd__diode_2
XTAP_116 VGND VPWR sky130_fd_sc_hd__tapvpwrvgnd_1
XTAP_105 VGND VPWR sky130_fd_sc_hd__tapvpwrvgnd_1
XFILLER_16_124 VGND VGND VPWR VPWR sky130_fd_sc_hd__fill_2
Xoutput79 _39_/X VGND VGND VPWR VPWR chanx_left_out[2] sky130_fd_sc_hd__buf_2
Xoutput68 _47_/X VGND VGND VPWR VPWR chanx_left_out[10] sky130_fd_sc_hd__buf_2
Xmem_bottom_ipin_0.sky130_fd_sc_hd__dfxtp_1_0_ prog_clk_0_FTB00/X input5/X VGND VGND
+ VPWR VPWR mux_bottom_ipin_0.mux_l1_in_2_/S sky130_fd_sc_hd__dfxtp_1
XFILLER_7_81 VGND VGND VPWR VPWR sky130_fd_sc_hd__decap_6
Xmux_top_ipin_2.mux_l2_in_2_ _72_/A _44_/A mux_top_ipin_2.mux_l2_in_3_/S VGND VGND
+ VPWR VPWR mux_top_ipin_2.mux_l2_in_2_/X sky130_fd_sc_hd__mux2_1
Xmux_top_ipin_7.mux_l4_in_0_ mux_top_ipin_7.mux_l3_in_1_/X mux_top_ipin_7.mux_l3_in_0_/X
+ mux_top_ipin_7.mux_l4_in_0_/S VGND VGND VPWR VPWR mux_top_ipin_7.mux_l4_in_0_/X
+ sky130_fd_sc_hd__mux2_1
Xmux_top_ipin_4.mux_l2_in_3__126 VGND VGND VPWR VPWR mux_top_ipin_4.mux_l2_in_3_/A0
+ mux_top_ipin_4.mux_l2_in_3__126/LO sky130_fd_sc_hd__conb_1
Xmux_top_ipin_2.mux_l2_in_3__141 VGND VGND VPWR VPWR mux_top_ipin_2.mux_l2_in_3_/A0
+ mux_top_ipin_2.mux_l2_in_3__141/LO sky130_fd_sc_hd__conb_1
X_61_ _61_/A VGND VGND VPWR VPWR _61_/X sky130_fd_sc_hd__clkbuf_1
XANTENNA_mux_top_ipin_0.mux_l4_in_0__S mux_top_ipin_0.mux_l4_in_0_/S VGND VGND VPWR
+ VPWR sky130_fd_sc_hd__diode_2
Xmux_top_ipin_7.mux_l3_in_1_ mux_top_ipin_7.mux_l2_in_3_/X mux_top_ipin_7.mux_l2_in_2_/X
+ mux_top_ipin_7.mux_l3_in_1_/S VGND VGND VPWR VPWR mux_top_ipin_7.mux_l3_in_1_/X
+ sky130_fd_sc_hd__mux2_1
XFILLER_9_49 VGND VGND VPWR VPWR sky130_fd_sc_hd__decap_6
X_44_ _44_/A VGND VGND VPWR VPWR _44_/X sky130_fd_sc_hd__clkbuf_1
XANTENNA_input39_A chanx_right_in[3] VGND VGND VPWR VPWR sky130_fd_sc_hd__diode_2
Xmux_top_ipin_7.mux_l2_in_2_ _75_/A _49_/A mux_top_ipin_7.mux_l2_in_3_/S VGND VGND
+ VPWR VPWR mux_top_ipin_7.mux_l2_in_2_/X sky130_fd_sc_hd__mux2_1
XFILLER_19_90 VGND VGND VPWR VPWR sky130_fd_sc_hd__fill_2
XANTENNA_mux_top_ipin_9.mux_l2_in_3__A1 _51_/A VGND VGND VPWR VPWR sky130_fd_sc_hd__diode_2
Xmux_top_ipin_2.mux_l3_in_0_ mux_top_ipin_2.mux_l2_in_1_/X mux_top_ipin_2.mux_l2_in_0_/X
+ mux_top_ipin_2.mux_l3_in_1_/S VGND VGND VPWR VPWR mux_top_ipin_2.mux_l3_in_0_/X
+ sky130_fd_sc_hd__mux2_1
Xmux_top_ipin_14.mux_l2_in_3_ mux_top_ipin_14.mux_l2_in_3_/A0 _56_/A mux_top_ipin_14.mux_l2_in_3_/S
+ VGND VGND VPWR VPWR mux_top_ipin_14.mux_l2_in_3_/X sky130_fd_sc_hd__mux2_1
XFILLER_21_91 VGND VGND VPWR VPWR sky130_fd_sc_hd__decap_8
Xoutput58 output58/A VGND VGND VPWR VPWR bottom_grid_pin_3_ sky130_fd_sc_hd__buf_2
Xoutput47 _34_/X VGND VGND VPWR VPWR SC_OUT_BOT sky130_fd_sc_hd__buf_2
Xoutput69 _48_/X VGND VGND VPWR VPWR chanx_left_out[11] sky130_fd_sc_hd__buf_2
XTAP_117 VGND VPWR sky130_fd_sc_hd__tapvpwrvgnd_1
XTAP_106 VGND VPWR sky130_fd_sc_hd__tapvpwrvgnd_1
XPHY_0 VGND VGND VPWR VPWR sky130_fd_sc_hd__decap_3
Xmux_top_ipin_2.mux_l2_in_1_ _64_/A repeater113/X mux_top_ipin_2.mux_l2_in_3_/S VGND
+ VGND VPWR VPWR mux_top_ipin_2.mux_l2_in_1_/X sky130_fd_sc_hd__mux2_1
XANTENNA_input21_A chanx_left_in[5] VGND VGND VPWR VPWR sky130_fd_sc_hd__diode_2
XANTENNA_mux_top_ipin_11.mux_l2_in_2__A0 _73_/A VGND VGND VPWR VPWR sky130_fd_sc_hd__diode_2
XFILLER_12_27 VGND VGND VPWR VPWR sky130_fd_sc_hd__fill_1
Xmux_top_ipin_14.mux_l4_in_0_ mux_top_ipin_14.mux_l3_in_1_/X mux_top_ipin_14.mux_l3_in_0_/X
+ mux_top_ipin_14.mux_l4_in_0_/S VGND VGND VPWR VPWR mux_top_ipin_14.mux_l4_in_0_/X
+ sky130_fd_sc_hd__mux2_1
XANTENNA__42__A _42_/A VGND VGND VPWR VPWR sky130_fd_sc_hd__diode_2
X_60_ _60_/A VGND VGND VPWR VPWR _60_/X sky130_fd_sc_hd__clkbuf_1
XANTENNA_mux_top_ipin_6.mux_l2_in_1__A0 _68_/A VGND VGND VPWR VPWR sky130_fd_sc_hd__diode_2
Xmux_top_ipin_7.mux_l3_in_0_ mux_top_ipin_7.mux_l2_in_1_/X mux_top_ipin_7.mux_l2_in_0_/X
+ mux_top_ipin_7.mux_l3_in_1_/S VGND VGND VPWR VPWR mux_top_ipin_7.mux_l3_in_0_/X
+ sky130_fd_sc_hd__mux2_1
XFILLER_0_19 VGND VGND VPWR VPWR sky130_fd_sc_hd__fill_1
Xmux_top_ipin_7.sky130_fd_sc_hd__buf_4_0_ mux_top_ipin_7.mux_l4_in_0_/X VGND VGND
+ VPWR VPWR output62/A sky130_fd_sc_hd__clkbuf_1
X_43_ _43_/A VGND VGND VPWR VPWR _43_/X sky130_fd_sc_hd__clkbuf_1
Xmux_top_ipin_14.mux_l3_in_1_ mux_top_ipin_14.mux_l2_in_3_/X mux_top_ipin_14.mux_l2_in_2_/X
+ mux_top_ipin_14.mux_l3_in_1_/S VGND VGND VPWR VPWR mux_top_ipin_14.mux_l3_in_1_/X
+ sky130_fd_sc_hd__mux2_1
Xmux_top_ipin_7.mux_l2_in_1_ _69_/A mux_top_ipin_7.mux_l1_in_2_/X mux_top_ipin_7.mux_l2_in_3_/S
+ VGND VGND VPWR VPWR mux_top_ipin_7.mux_l2_in_1_/X sky130_fd_sc_hd__mux2_1
XANTENNA__50__A _50_/A VGND VGND VPWR VPWR sky130_fd_sc_hd__diode_2
XANTENNA_mem_top_ipin_3.sky130_fd_sc_hd__dfxtp_1_2__D mux_top_ipin_3.mux_l2_in_3_/S
+ VGND VGND VPWR VPWR sky130_fd_sc_hd__diode_2
Xoutput48 _35_/X VGND VGND VPWR VPWR SC_OUT_TOP sky130_fd_sc_hd__buf_2
Xmux_top_ipin_14.mux_l2_in_2_ _76_/A _48_/A mux_top_ipin_14.mux_l2_in_3_/S VGND VGND
+ VPWR VPWR mux_top_ipin_14.mux_l2_in_2_/X sky130_fd_sc_hd__mux2_1
Xoutput59 output59/A VGND VGND VPWR VPWR bottom_grid_pin_4_ sky130_fd_sc_hd__buf_2
XANTENNA__45__A _45_/A VGND VGND VPWR VPWR sky130_fd_sc_hd__diode_2
XTAP_118 VGND VPWR sky130_fd_sc_hd__tapvpwrvgnd_1
XTAP_107 VGND VPWR sky130_fd_sc_hd__tapvpwrvgnd_1
Xmux_top_ipin_7.mux_l1_in_2_ _45_/A _65_/A mux_top_ipin_7.mux_l1_in_2_/S VGND VGND
+ VPWR VPWR mux_top_ipin_7.mux_l1_in_2_/X sky130_fd_sc_hd__mux2_1
XFILLER_15_181 VGND VGND VPWR VPWR sky130_fd_sc_hd__fill_1
XPHY_1 VGND VGND VPWR VPWR sky130_fd_sc_hd__decap_3
Xrepeater120 repeater121/X VGND VGND VPWR VPWR _60_/A sky130_fd_sc_hd__clkbuf_2
Xmux_top_ipin_2.mux_l2_in_0_ input19/X mux_top_ipin_2.mux_l1_in_0_/X mux_top_ipin_2.mux_l2_in_3_/S
+ VGND VGND VPWR VPWR mux_top_ipin_2.mux_l2_in_0_/X sky130_fd_sc_hd__mux2_1
XANTENNA_input14_A chanx_left_in[17] VGND VGND VPWR VPWR sky130_fd_sc_hd__diode_2
XANTENNA_mux_top_ipin_11.mux_l2_in_2__A1 _49_/A VGND VGND VPWR VPWR sky130_fd_sc_hd__diode_2
XANTENNA_input6_A chanx_left_in[0] VGND VGND VPWR VPWR sky130_fd_sc_hd__diode_2
Xlogical_tile_io_mode_io__0.ltile_phy_iopad_0.EMBEDDED_IO_HD_0_.INV_SOC_DIR output107/A
+ VGND VGND VPWR VPWR logical_tile_io_mode_io__0.ltile_phy_iopad_0.EMBEDDED_IO_HD_0_.INV_SOC_DIR/Y
+ sky130_fd_sc_hd__inv_1
XANTENNA_mux_top_ipin_3.mux_l2_in_1__S mux_top_ipin_3.mux_l2_in_3_/S VGND VGND VPWR
+ VPWR sky130_fd_sc_hd__diode_2
Xmem_top_ipin_1.sky130_fd_sc_hd__dfxtp_1_3_ prog_clk_0_FTB00/X mux_top_ipin_1.mux_l3_in_1_/S
+ VGND VGND VPWR VPWR mux_top_ipin_1.mux_l4_in_0_/S sky130_fd_sc_hd__dfxtp_1
XANTENNA__53__A _53_/A VGND VGND VPWR VPWR sky130_fd_sc_hd__diode_2
X_42_ _42_/A VGND VGND VPWR VPWR _42_/X sky130_fd_sc_hd__clkbuf_1
XANTENNA_mux_top_ipin_4.mux_l2_in_3__A1 _52_/A VGND VGND VPWR VPWR sky130_fd_sc_hd__diode_2
Xmux_top_ipin_14.mux_l3_in_0_ mux_top_ipin_14.mux_l2_in_1_/X mux_top_ipin_14.mux_l2_in_0_/X
+ mux_top_ipin_14.mux_l3_in_1_/S VGND VGND VPWR VPWR mux_top_ipin_14.mux_l3_in_0_/X
+ sky130_fd_sc_hd__mux2_1
Xmem_top_ipin_11.sky130_fd_sc_hd__dfxtp_1_3_ prog_clk_0_FTB00/X mux_top_ipin_11.mux_l3_in_1_/S
+ VGND VGND VPWR VPWR mux_top_ipin_11.mux_l4_in_0_/S sky130_fd_sc_hd__dfxtp_1
Xmux_top_ipin_7.mux_l2_in_0_ mux_top_ipin_7.mux_l1_in_1_/X mux_top_ipin_7.mux_l1_in_0_/X
+ mux_top_ipin_7.mux_l2_in_3_/S VGND VGND VPWR VPWR mux_top_ipin_7.mux_l2_in_0_/X
+ sky130_fd_sc_hd__mux2_1
XANTENNA_input44_A chanx_right_in[8] VGND VGND VPWR VPWR sky130_fd_sc_hd__diode_2
XFILLER_19_113 VGND VPWR VPWR VGND sky130_ef_sc_hd__decap_12
XFILLER_19_157 VGND VGND VPWR VPWR sky130_fd_sc_hd__fill_1
Xmux_top_ipin_14.mux_l2_in_1_ _68_/A input39/X mux_top_ipin_14.mux_l2_in_3_/S VGND
+ VGND VPWR VPWR mux_top_ipin_14.mux_l2_in_1_/X sky130_fd_sc_hd__mux2_1
XFILLER_16_116 VGND VGND VPWR VPWR sky130_fd_sc_hd__decap_8
Xmux_top_ipin_14.sky130_fd_sc_hd__buf_4_0_ mux_top_ipin_14.mux_l4_in_0_/X VGND VGND
+ VPWR VPWR output54/A sky130_fd_sc_hd__clkbuf_1
Xoutput49 output49/A VGND VGND VPWR VPWR bottom_grid_pin_0_ sky130_fd_sc_hd__buf_2
XTAP_119 VGND VPWR sky130_fd_sc_hd__tapvpwrvgnd_1
XTAP_108 VGND VPWR sky130_fd_sc_hd__tapvpwrvgnd_1
Xmux_top_ipin_7.mux_l1_in_1_ repeater115/X input18/X mux_top_ipin_7.mux_l1_in_2_/S
+ VGND VGND VPWR VPWR mux_top_ipin_7.mux_l1_in_1_/X sky130_fd_sc_hd__mux2_1
XPHY_2 VGND VGND VPWR VPWR sky130_fd_sc_hd__decap_3
XANTENNA__61__A _61_/A VGND VGND VPWR VPWR sky130_fd_sc_hd__diode_2
Xrepeater121 input19/X VGND VGND VPWR VPWR repeater121/X sky130_fd_sc_hd__clkbuf_1
Xrepeater110 input6/X VGND VGND VPWR VPWR _57_/A sky130_fd_sc_hd__dlymetal6s2s_1
XFILLER_12_185 VGND VGND VPWR VPWR sky130_fd_sc_hd__fill_1
Xmem_top_ipin_4.sky130_fd_sc_hd__dfxtp_1_3_ prog_clk_0_FTB00/X mux_top_ipin_4.mux_l3_in_1_/S
+ VGND VGND VPWR VPWR mux_top_ipin_4.mux_l4_in_0_/S sky130_fd_sc_hd__dfxtp_1
XANTENNA_mux_top_ipin_1.mux_l2_in_1__A0 _63_/A VGND VGND VPWR VPWR sky130_fd_sc_hd__diode_2
XANTENNA__56__A _56_/A VGND VGND VPWR VPWR sky130_fd_sc_hd__diode_2
Xmem_top_ipin_14.sky130_fd_sc_hd__dfxtp_1_3_ prog_clk_0_FTB00/X mux_top_ipin_14.mux_l3_in_1_/S
+ VGND VGND VPWR VPWR mux_top_ipin_14.mux_l4_in_0_/S sky130_fd_sc_hd__dfxtp_1
Xmem_top_ipin_1.sky130_fd_sc_hd__dfxtp_1_2_ prog_clk_0_FTB00/X mux_top_ipin_1.mux_l2_in_3_/S
+ VGND VGND VPWR VPWR mux_top_ipin_1.mux_l3_in_1_/S sky130_fd_sc_hd__dfxtp_1
Xmux_top_ipin_2.mux_l1_in_0_ _38_/A input17/X mux_top_ipin_2.mux_l1_in_0_/S VGND VGND
+ VPWR VPWR mux_top_ipin_2.mux_l1_in_0_/X sky130_fd_sc_hd__mux2_1
XANTENNA_mux_top_ipin_15.mux_l1_in_2__A0 _41_/A VGND VGND VPWR VPWR sky130_fd_sc_hd__diode_2
X_41_ _41_/A VGND VGND VPWR VPWR _41_/X sky130_fd_sc_hd__clkbuf_1
Xmem_top_ipin_11.sky130_fd_sc_hd__dfxtp_1_2_ prog_clk_0_FTB00/X mux_top_ipin_11.mux_l2_in_3_/S
+ VGND VGND VPWR VPWR mux_top_ipin_11.mux_l3_in_1_/S sky130_fd_sc_hd__dfxtp_1
XANTENNA__64__A _64_/A VGND VGND VPWR VPWR sky130_fd_sc_hd__diode_2
XANTENNA_mux_top_ipin_15.mux_l2_in_1__A0 _67_/A VGND VGND VPWR VPWR sky130_fd_sc_hd__diode_2
XFILLER_10_51 VGND VGND VPWR VPWR sky130_fd_sc_hd__fill_1
XFILLER_19_125 VGND VGND VPWR VPWR sky130_fd_sc_hd__decap_4
XANTENNA_input37_A chanx_right_in[1] VGND VGND VPWR VPWR sky130_fd_sc_hd__diode_2
Xmem_top_ipin_7.sky130_fd_sc_hd__dfxtp_1_3_ prog_clk_0_FTB00/X mux_top_ipin_7.mux_l3_in_1_/S
+ VGND VGND VPWR VPWR mux_top_ipin_7.mux_l4_in_0_/S sky130_fd_sc_hd__dfxtp_1
Xmux_top_ipin_14.mux_l2_in_0_ _60_/A mux_top_ipin_14.mux_l1_in_0_/X mux_top_ipin_14.mux_l2_in_3_/S
+ VGND VGND VPWR VPWR mux_top_ipin_14.mux_l2_in_0_/X sky130_fd_sc_hd__mux2_1
Xmux_top_ipin_0.sky130_fd_sc_hd__buf_4_0_ mux_top_ipin_0.mux_l4_in_0_/X VGND VGND
+ VPWR VPWR output49/A sky130_fd_sc_hd__clkbuf_1
XTAP_109 VGND VPWR sky130_fd_sc_hd__tapvpwrvgnd_1
Xmux_top_ipin_7.mux_l1_in_0_ repeater119/X input6/X mux_top_ipin_7.mux_l1_in_2_/S
+ VGND VGND VPWR VPWR mux_top_ipin_7.mux_l1_in_0_/X sky130_fd_sc_hd__mux2_1
XFILLER_22_109 VGND VGND VPWR VPWR sky130_fd_sc_hd__decap_3
XANTENNA_mux_top_ipin_8.mux_l2_in_2__A0 _76_/A VGND VGND VPWR VPWR sky130_fd_sc_hd__diode_2
Xrepeater122 input18/X VGND VGND VPWR VPWR _59_/A sky130_fd_sc_hd__dlymetal6s2s_1
Xrepeater111 input6/X VGND VGND VPWR VPWR repeater111/X sky130_fd_sc_hd__clkbuf_2
XPHY_3 VGND VGND VPWR VPWR sky130_fd_sc_hd__decap_3
Xmem_top_ipin_4.sky130_fd_sc_hd__dfxtp_1_2_ prog_clk_0_FTB00/X mux_top_ipin_4.mux_l2_in_3_/S
+ VGND VGND VPWR VPWR mux_top_ipin_4.mux_l3_in_1_/S sky130_fd_sc_hd__dfxtp_1
XANTENNA__72__A _72_/A VGND VGND VPWR VPWR sky130_fd_sc_hd__diode_2
XANTENNA__67__A _67_/A VGND VGND VPWR VPWR sky130_fd_sc_hd__diode_2
Xmem_top_ipin_14.sky130_fd_sc_hd__dfxtp_1_2_ prog_clk_0_FTB00/X mux_top_ipin_14.mux_l2_in_3_/S
+ VGND VGND VPWR VPWR mux_top_ipin_14.mux_l3_in_1_/S sky130_fd_sc_hd__dfxtp_1
Xmem_top_ipin_1.sky130_fd_sc_hd__dfxtp_1_1_ prog_clk_0_FTB00/X mux_top_ipin_1.mux_l1_in_0_/S
+ VGND VGND VPWR VPWR mux_top_ipin_1.mux_l2_in_3_/S sky130_fd_sc_hd__dfxtp_1
XANTENNA_mux_top_ipin_15.mux_l1_in_2__A1 _61_/A VGND VGND VPWR VPWR sky130_fd_sc_hd__diode_2
X_40_ _40_/A VGND VGND VPWR VPWR _40_/X sky130_fd_sc_hd__clkbuf_1
Xmem_top_ipin_11.sky130_fd_sc_hd__dfxtp_1_1_ prog_clk_0_FTB00/X mux_top_ipin_11.mux_l1_in_2_/S
+ VGND VGND VPWR VPWR mux_top_ipin_11.mux_l2_in_3_/S sky130_fd_sc_hd__dfxtp_1
XFILLER_19_83 VGND VGND VPWR VPWR sky130_fd_sc_hd__decap_4
Xmem_top_ipin_7.sky130_fd_sc_hd__dfxtp_1_2_ prog_clk_0_FTB00/X mux_top_ipin_7.mux_l2_in_3_/S
+ VGND VGND VPWR VPWR mux_top_ipin_7.mux_l3_in_1_/S sky130_fd_sc_hd__dfxtp_1
XANTENNA__75__A _75_/A VGND VGND VPWR VPWR sky130_fd_sc_hd__diode_2
XFILLER_10_85 VGND VGND VPWR VPWR sky130_fd_sc_hd__decap_6
XFILLER_18_170 VGND VGND VPWR VPWR sky130_fd_sc_hd__fill_1
XANTENNA_mux_top_ipin_13.mux_l2_in_3__A1 _55_/A VGND VGND VPWR VPWR sky130_fd_sc_hd__diode_2
XANTENNA_mux_top_ipin_8.mux_l2_in_2__A1 _50_/A VGND VGND VPWR VPWR sky130_fd_sc_hd__diode_2
Xrepeater112 repeater113/X VGND VGND VPWR VPWR _40_/A sky130_fd_sc_hd__dlymetal6s2s_1
Xrepeater123 input18/X VGND VGND VPWR VPWR repeater123/X sky130_fd_sc_hd__clkbuf_2
XPHY_4 VGND VGND VPWR VPWR sky130_fd_sc_hd__decap_3
Xmem_top_ipin_4.sky130_fd_sc_hd__dfxtp_1_1_ prog_clk_0_FTB00/X mux_top_ipin_4.mux_l1_in_2_/S
+ VGND VGND VPWR VPWR mux_top_ipin_4.mux_l2_in_3_/S sky130_fd_sc_hd__dfxtp_1
Xmux_top_ipin_14.mux_l1_in_0_ input37/X _58_/A mux_top_ipin_14.mux_l1_in_0_/S VGND
+ VGND VPWR VPWR mux_top_ipin_14.mux_l1_in_0_/X sky130_fd_sc_hd__mux2_1
XANTENNA_input12_A chanx_left_in[15] VGND VGND VPWR VPWR sky130_fd_sc_hd__diode_2
Xmem_top_ipin_14.sky130_fd_sc_hd__dfxtp_1_1_ prog_clk_0_FTB00/X mux_top_ipin_14.mux_l1_in_0_/S
+ VGND VGND VPWR VPWR mux_top_ipin_14.mux_l2_in_3_/S sky130_fd_sc_hd__dfxtp_1
XANTENNA_mux_top_ipin_10.mux_l2_in_1__A0 _64_/A VGND VGND VPWR VPWR sky130_fd_sc_hd__diode_2
Xmem_top_ipin_1.sky130_fd_sc_hd__dfxtp_1_0_ prog_clk_0_FTB00/X mux_top_ipin_0.mux_l4_in_0_/S
+ VGND VGND VPWR VPWR mux_top_ipin_1.mux_l1_in_0_/S sky130_fd_sc_hd__dfxtp_1
XANTENNA_input4_A bottom_width_0_height_0__pin_0_ VGND VGND VPWR VPWR sky130_fd_sc_hd__diode_2
XANTENNA_mux_bottom_ipin_0.mux_l2_in_3__A1 _53_/A VGND VGND VPWR VPWR sky130_fd_sc_hd__diode_2
Xmem_top_ipin_11.sky130_fd_sc_hd__dfxtp_1_0_ prog_clk_0_FTB00/X mux_top_ipin_10.mux_l4_in_0_/S
+ VGND VGND VPWR VPWR mux_top_ipin_11.mux_l1_in_2_/S sky130_fd_sc_hd__dfxtp_1
XANTENNA_repeater114_A repeater115/X VGND VGND VPWR VPWR sky130_fd_sc_hd__diode_2
XANTENNA_mux_top_ipin_3.mux_l2_in_2__A0 _71_/A VGND VGND VPWR VPWR sky130_fd_sc_hd__diode_2
Xmem_top_ipin_7.sky130_fd_sc_hd__dfxtp_1_1_ prog_clk_0_FTB00/X mux_top_ipin_7.mux_l1_in_2_/S
+ VGND VGND VPWR VPWR mux_top_ipin_7.mux_l2_in_3_/S sky130_fd_sc_hd__dfxtp_1
Xlogical_tile_io_mode_io__0.ltile_phy_iopad_0.EMBEDDED_IO_HD_0_.IN_PROTECT_GATE input46/X
+ logical_tile_io_mode_io__0.ltile_phy_iopad_0.EMBEDDED_IO_HD_0_.INV_SOC_DIR/Y VGND
+ VGND VPWR VPWR bottom_width_0_height_0__pin_1_lower sky130_fd_sc_hd__ebufn_8
XANTENNA_input42_A chanx_right_in[6] VGND VGND VPWR VPWR sky130_fd_sc_hd__diode_2
Xmux_top_ipin_14.mux_l2_in_3__139 VGND VGND VPWR VPWR mux_top_ipin_14.mux_l2_in_3_/A0
+ mux_top_ipin_14.mux_l2_in_3__139/LO sky130_fd_sc_hd__conb_1
XFILLER_15_185 VGND VGND VPWR VPWR sky130_fd_sc_hd__fill_1
XPHY_5 VGND VGND VPWR VPWR sky130_fd_sc_hd__decap_3
XFILLER_7_87 VGND VGND VPWR VPWR sky130_fd_sc_hd__fill_1
Xrepeater113 input39/X VGND VGND VPWR VPWR repeater113/X sky130_fd_sc_hd__clkbuf_1
Xrepeater124 repeater125/X VGND VGND VPWR VPWR _58_/A sky130_fd_sc_hd__dlymetal6s2s_1
XFILLER_12_133 VGND VGND VPWR VPWR sky130_fd_sc_hd__fill_1
XFILLER_12_122 VGND VGND VPWR VPWR sky130_fd_sc_hd__decap_6
Xmem_top_ipin_4.sky130_fd_sc_hd__dfxtp_1_0_ prog_clk_0_FTB00/X mux_top_ipin_3.mux_l4_in_0_/S
+ VGND VGND VPWR VPWR mux_top_ipin_4.mux_l1_in_2_/S sky130_fd_sc_hd__dfxtp_1
Xmem_top_ipin_14.sky130_fd_sc_hd__dfxtp_1_0_ prog_clk_0_FTB00/X mux_top_ipin_13.mux_l4_in_0_/S
+ VGND VGND VPWR VPWR mux_top_ipin_14.mux_l1_in_0_/S sky130_fd_sc_hd__dfxtp_1
Xmux_top_ipin_3.mux_l2_in_3_ mux_top_ipin_3.mux_l2_in_3_/A0 _51_/A mux_top_ipin_3.mux_l2_in_3_/S
+ VGND VGND VPWR VPWR mux_top_ipin_3.mux_l2_in_3_/X sky130_fd_sc_hd__mux2_1
XFILLER_13_53 VGND VGND VPWR VPWR sky130_fd_sc_hd__fill_1
XFILLER_19_96 VGND VPWR VPWR VGND sky130_ef_sc_hd__decap_12