* NGSPICE file created from cbx_1__1_.ext - technology: sky130A

* Black-box entry subcircuit for sky130_fd_sc_hd__dfxtp_1 abstract view
.subckt sky130_fd_sc_hd__dfxtp_1 CLK D VGND VNB VPB VPWR Q
.ends

* Black-box entry subcircuit for sky130_fd_sc_hd__diode_2 abstract view
.subckt sky130_fd_sc_hd__diode_2 DIODE VGND VNB VPB VPWR
.ends

* Black-box entry subcircuit for sky130_ef_sc_hd__decap_12 abstract view
.subckt sky130_ef_sc_hd__decap_12 VGND VPWR VPB VNB
.ends

* Black-box entry subcircuit for sky130_fd_sc_hd__fill_1 abstract view
.subckt sky130_fd_sc_hd__fill_1 VGND VNB VPB VPWR
.ends

* Black-box entry subcircuit for sky130_fd_sc_hd__mux2_1 abstract view
.subckt sky130_fd_sc_hd__mux2_1 A0 A1 S VGND VNB VPB VPWR X
.ends

* Black-box entry subcircuit for sky130_fd_sc_hd__buf_2 abstract view
.subckt sky130_fd_sc_hd__buf_2 A VGND VNB VPB VPWR X
.ends

* Black-box entry subcircuit for sky130_fd_sc_hd__buf_4 abstract view
.subckt sky130_fd_sc_hd__buf_4 A VGND VNB VPB VPWR X
.ends

* Black-box entry subcircuit for sky130_fd_sc_hd__fill_2 abstract view
.subckt sky130_fd_sc_hd__fill_2 VGND VNB VPB VPWR
.ends

* Black-box entry subcircuit for sky130_fd_sc_hd__decap_6 abstract view
.subckt sky130_fd_sc_hd__decap_6 VGND VNB VPB VPWR
.ends

* Black-box entry subcircuit for sky130_fd_sc_hd__decap_8 abstract view
.subckt sky130_fd_sc_hd__decap_8 VGND VNB VPB VPWR
.ends

* Black-box entry subcircuit for sky130_fd_sc_hd__tapvpwrvgnd_1 abstract view
.subckt sky130_fd_sc_hd__tapvpwrvgnd_1 VGND VPWR
.ends

* Black-box entry subcircuit for sky130_fd_sc_hd__decap_4 abstract view
.subckt sky130_fd_sc_hd__decap_4 VGND VNB VPB VPWR
.ends

* Black-box entry subcircuit for sky130_fd_sc_hd__buf_8 abstract view
.subckt sky130_fd_sc_hd__buf_8 A VGND VNB VPB VPWR X
.ends

* Black-box entry subcircuit for sky130_fd_sc_hd__conb_1 abstract view
.subckt sky130_fd_sc_hd__conb_1 VGND VNB VPB VPWR HI LO
.ends

* Black-box entry subcircuit for sky130_fd_sc_hd__decap_3 abstract view
.subckt sky130_fd_sc_hd__decap_3 VGND VNB VPB VPWR
.ends

.subckt cbx_1__1_ REGIN_FEEDTHROUGH REGOUT_FEEDTHROUGH SC_IN_BOT SC_IN_TOP SC_OUT_BOT
+ SC_OUT_TOP VGND VPWR bottom_grid_pin_0_ bottom_grid_pin_10_ bottom_grid_pin_11_
+ bottom_grid_pin_12_ bottom_grid_pin_13_ bottom_grid_pin_14_ bottom_grid_pin_15_
+ bottom_grid_pin_1_ bottom_grid_pin_2_ bottom_grid_pin_3_ bottom_grid_pin_4_ bottom_grid_pin_5_
+ bottom_grid_pin_6_ bottom_grid_pin_7_ bottom_grid_pin_8_ bottom_grid_pin_9_ ccff_head
+ ccff_tail chanx_left_in[0] chanx_left_in[10] chanx_left_in[11] chanx_left_in[12]
+ chanx_left_in[13] chanx_left_in[14] chanx_left_in[15] chanx_left_in[16] chanx_left_in[17]
+ chanx_left_in[18] chanx_left_in[19] chanx_left_in[1] chanx_left_in[2] chanx_left_in[3]
+ chanx_left_in[4] chanx_left_in[5] chanx_left_in[6] chanx_left_in[7] chanx_left_in[8]
+ chanx_left_in[9] chanx_left_out[0] chanx_left_out[10] chanx_left_out[11] chanx_left_out[12]
+ chanx_left_out[13] chanx_left_out[14] chanx_left_out[15] chanx_left_out[16] chanx_left_out[17]
+ chanx_left_out[18] chanx_left_out[19] chanx_left_out[1] chanx_left_out[2] chanx_left_out[3]
+ chanx_left_out[4] chanx_left_out[5] chanx_left_out[6] chanx_left_out[7] chanx_left_out[8]
+ chanx_left_out[9] chanx_right_in[0] chanx_right_in[10] chanx_right_in[11] chanx_right_in[12]
+ chanx_right_in[13] chanx_right_in[14] chanx_right_in[15] chanx_right_in[16] chanx_right_in[17]
+ chanx_right_in[18] chanx_right_in[19] chanx_right_in[1] chanx_right_in[2] chanx_right_in[3]
+ chanx_right_in[4] chanx_right_in[5] chanx_right_in[6] chanx_right_in[7] chanx_right_in[8]
+ chanx_right_in[9] chanx_right_out[0] chanx_right_out[10] chanx_right_out[11] chanx_right_out[12]
+ chanx_right_out[13] chanx_right_out[14] chanx_right_out[15] chanx_right_out[16]
+ chanx_right_out[17] chanx_right_out[18] chanx_right_out[19] chanx_right_out[1] chanx_right_out[2]
+ chanx_right_out[3] chanx_right_out[4] chanx_right_out[5] chanx_right_out[6] chanx_right_out[7]
+ chanx_right_out[8] chanx_right_out[9] clk_1_N_out clk_1_S_out clk_1_W_in clk_2_E_out
+ clk_2_W_in clk_2_W_out clk_3_E_out clk_3_W_in clk_3_W_out prog_clk_0_N_in prog_clk_0_W_out
+ prog_clk_1_N_out prog_clk_1_S_out prog_clk_1_W_in prog_clk_2_E_out prog_clk_2_W_in
+ prog_clk_2_W_out prog_clk_3_E_out prog_clk_3_W_in prog_clk_3_W_out
Xmem_top_ipin_8.sky130_fd_sc_hd__dfxtp_1_0_ prog_clk_0_FTB00/X mux_top_ipin_7.mux_l4_in_0_/S
+ VGND VGND VPWR VPWR mux_top_ipin_8.mux_l1_in_2_/S sky130_fd_sc_hd__dfxtp_1
XANTENNA_mux_top_ipin_7.mux_l1_in_0__A1 chanx_left_in[1] VGND VGND VPWR VPWR sky130_fd_sc_hd__diode_2
XFILLER_3_23 VGND VPWR VPWR VGND sky130_ef_sc_hd__decap_12
XFILLER_10_114 VGND VGND VPWR VPWR sky130_fd_sc_hd__fill_1
Xmux_top_ipin_13.mux_l3_in_0_ mux_top_ipin_13.mux_l2_in_1_/X mux_top_ipin_13.mux_l2_in_0_/X
+ mux_top_ipin_13.mux_l3_in_1_/S VGND VGND VPWR VPWR mux_top_ipin_13.mux_l3_in_0_/X
+ sky130_fd_sc_hd__mux2_1
X_66_ chanx_left_in[11] VGND VGND VPWR VPWR chanx_right_out[11] sky130_fd_sc_hd__buf_2
Xclk_1_N_FTB01 clk_1_W_in VGND VGND VPWR VPWR clk_1_N_out sky130_fd_sc_hd__buf_4
Xmux_top_ipin_6.mux_l2_in_0_ chanx_left_in[2] mux_top_ipin_6.mux_l1_in_0_/X mux_top_ipin_6.mux_l2_in_3_/S
+ VGND VGND VPWR VPWR mux_top_ipin_6.mux_l2_in_0_/X sky130_fd_sc_hd__mux2_1
XANTENNA_mux_top_ipin_10.mux_l2_in_2__A1 chanx_right_in[6] VGND VGND VPWR VPWR sky130_fd_sc_hd__diode_2
XFILLER_0_57 VGND VPWR VPWR VGND sky130_ef_sc_hd__decap_12
XANTENNA_mux_top_ipin_5.mux_l2_in_2__S mux_top_ipin_5.mux_l2_in_3_/S VGND VGND VPWR
+ VPWR sky130_fd_sc_hd__diode_2
X_49_ chanx_right_in[14] VGND VGND VPWR VPWR chanx_left_out[14] sky130_fd_sc_hd__buf_2
XANTENNA_mux_top_ipin_5.mux_l2_in_1__A1 chanx_right_in[3] VGND VGND VPWR VPWR sky130_fd_sc_hd__diode_2
XFILLER_18_97 VGND VGND VPWR VPWR sky130_fd_sc_hd__fill_2
XFILLER_18_64 VGND VPWR VPWR VGND sky130_ef_sc_hd__decap_12
Xmux_top_ipin_13.mux_l2_in_1_ chanx_left_in[9] chanx_right_in[3] mux_top_ipin_13.mux_l2_in_3_/S
+ VGND VGND VPWR VPWR mux_top_ipin_13.mux_l2_in_1_/X sky130_fd_sc_hd__mux2_1
XFILLER_20_43 VGND VPWR VPWR VGND sky130_ef_sc_hd__decap_12
XANTENNA_mux_top_ipin_3.mux_l2_in_3__A1 chanx_right_in[19] VGND VGND VPWR VPWR sky130_fd_sc_hd__diode_2
XANTENNA_mux_top_ipin_2.mux_l1_in_0__A0 chanx_right_in[0] VGND VGND VPWR VPWR sky130_fd_sc_hd__diode_2
XFILLER_13_3 VGND VGND VPWR VPWR sky130_fd_sc_hd__decap_6
XANTENNA_mux_top_ipin_0.mux_l1_in_2__A0 chanx_right_in[4] VGND VGND VPWR VPWR sky130_fd_sc_hd__diode_2
XFILLER_22_189 VGND VGND VPWR VPWR sky130_fd_sc_hd__fill_1
XFILLER_22_101 VGND VGND VPWR VPWR sky130_fd_sc_hd__decap_8
XTAP_112 VGND VPWR sky130_fd_sc_hd__tapvpwrvgnd_1
XTAP_101 VGND VPWR sky130_fd_sc_hd__tapvpwrvgnd_1
Xmux_top_ipin_1.mux_l1_in_0_ chanx_right_in[1] chanx_left_in[1] mux_top_ipin_1.mux_l1_in_0_/S
+ VGND VGND VPWR VPWR mux_top_ipin_1.mux_l1_in_0_/X sky130_fd_sc_hd__mux2_1
XFILLER_13_167 VGND VGND VPWR VPWR sky130_fd_sc_hd__fill_1
XFILLER_3_35 VGND VPWR VPWR VGND sky130_ef_sc_hd__decap_12
XFILLER_12_22 VGND VGND VPWR VPWR sky130_fd_sc_hd__decap_6
XANTENNA_mux_top_ipin_0.mux_l2_in_1__A0 chanx_left_in[10] VGND VGND VPWR VPWR sky130_fd_sc_hd__diode_2
X_65_ chanx_left_in[10] VGND VGND VPWR VPWR chanx_right_out[10] sky130_fd_sc_hd__buf_2
XANTENNA_prog_clk_0_W_FTB01_A prog_clk_0_N_in VGND VGND VPWR VPWR sky130_fd_sc_hd__diode_2
Xprog_clk_2_W_FTB01 prog_clk_2_W_in VGND VGND VPWR VPWR prog_clk_2_W_out sky130_fd_sc_hd__buf_4
XFILLER_0_69 VGND VPWR VPWR VGND sky130_ef_sc_hd__decap_12
X_48_ chanx_right_in[13] VGND VGND VPWR VPWR chanx_left_out[13] sky130_fd_sc_hd__buf_2
XFILLER_18_76 VGND VGND VPWR VPWR sky130_fd_sc_hd__decap_8
Xmux_top_ipin_13.mux_l2_in_0_ chanx_left_in[3] mux_top_ipin_13.mux_l1_in_0_/X mux_top_ipin_13.mux_l2_in_3_/S
+ VGND VGND VPWR VPWR mux_top_ipin_13.mux_l2_in_0_/X sky130_fd_sc_hd__mux2_1
Xmux_top_ipin_6.mux_l1_in_0_ chanx_right_in[0] chanx_left_in[0] mux_top_ipin_6.mux_l1_in_0_/S
+ VGND VGND VPWR VPWR mux_top_ipin_6.mux_l1_in_0_/X sky130_fd_sc_hd__mux2_1
XFILLER_20_55 VGND VPWR VPWR VGND sky130_ef_sc_hd__decap_12
XANTENNA_mux_top_ipin_14.mux_l2_in_1__A0 chanx_left_in[10] VGND VGND VPWR VPWR sky130_fd_sc_hd__diode_2
XANTENNA_mux_top_ipin_2.mux_l1_in_0__A1 chanx_left_in[0] VGND VGND VPWR VPWR sky130_fd_sc_hd__diode_2
XFILLER_15_66 VGND VGND VPWR VPWR sky130_fd_sc_hd__decap_8
XANTENNA_mux_top_ipin_9.mux_l2_in_0__A0 chanx_left_in[3] VGND VGND VPWR VPWR sky130_fd_sc_hd__diode_2
XTAP_113 VGND VPWR sky130_fd_sc_hd__tapvpwrvgnd_1
XTAP_102 VGND VPWR sky130_fd_sc_hd__tapvpwrvgnd_1
XANTENNA_mux_top_ipin_0.mux_l1_in_2__A1 chanx_left_in[4] VGND VGND VPWR VPWR sky130_fd_sc_hd__diode_2
XFILLER_13_113 VGND VGND VPWR VPWR sky130_fd_sc_hd__decap_6
XANTENNA_mem_top_ipin_4.sky130_fd_sc_hd__dfxtp_1_2__D mux_top_ipin_4.mux_l2_in_3_/S
+ VGND VGND VPWR VPWR sky130_fd_sc_hd__diode_2
XANTENNA_mux_top_ipin_7.mux_l2_in_2__A0 chanx_left_in[17] VGND VGND VPWR VPWR sky130_fd_sc_hd__diode_2
XFILLER_12_67 VGND VGND VPWR VPWR sky130_fd_sc_hd__fill_1
X_64_ chanx_left_in[9] VGND VGND VPWR VPWR chanx_right_out[9] sky130_fd_sc_hd__buf_2
Xmux_top_ipin_4.sky130_fd_sc_hd__buf_4_0_ mux_top_ipin_4.mux_l4_in_0_/X VGND VGND
+ VPWR VPWR bottom_grid_pin_4_ sky130_fd_sc_hd__buf_4
XFILLER_0_15 VGND VPWR VPWR VGND sky130_ef_sc_hd__decap_12
XFILLER_2_145 VGND VGND VPWR VPWR sky130_fd_sc_hd__fill_1
XFILLER_2_167 VGND VGND VPWR VPWR sky130_fd_sc_hd__fill_1
XFILLER_3_3 VGND VGND VPWR VPWR sky130_fd_sc_hd__fill_2
X_47_ chanx_right_in[12] VGND VGND VPWR VPWR chanx_left_out[12] sky130_fd_sc_hd__buf_2
XFILLER_9_57 VGND VGND VPWR VPWR sky130_fd_sc_hd__fill_1
XFILLER_22_9 VGND VGND VPWR VPWR sky130_fd_sc_hd__fill_1
XFILLER_20_67 VGND VGND VPWR VPWR sky130_fd_sc_hd__fill_1
Xclk_2_E_FTB01 clk_2_W_in VGND VGND VPWR VPWR clk_2_E_out sky130_fd_sc_hd__buf_4
XFILLER_19_185 VGND VGND VPWR VPWR sky130_fd_sc_hd__decap_4
XFILLER_19_163 VGND VGND VPWR VPWR sky130_fd_sc_hd__decap_4
Xmux_top_ipin_13.mux_l1_in_0_ chanx_right_in[1] chanx_left_in[1] mux_top_ipin_13.mux_l1_in_0_/S
+ VGND VGND VPWR VPWR mux_top_ipin_13.mux_l1_in_0_/X sky130_fd_sc_hd__mux2_1
XANTENNA_mux_top_ipin_14.mux_l2_in_1__A1 chanx_right_in[2] VGND VGND VPWR VPWR sky130_fd_sc_hd__diode_2
XFILLER_22_147 VGND VGND VPWR VPWR sky130_fd_sc_hd__fill_1
XTAP_114 VGND VPWR sky130_fd_sc_hd__tapvpwrvgnd_1
XTAP_103 VGND VPWR sky130_fd_sc_hd__tapvpwrvgnd_1
XFILLER_16_177 VGND VPWR VPWR VGND sky130_ef_sc_hd__decap_12
XANTENNA_mux_top_ipin_12.mux_l2_in_3__A1 chanx_right_in[16] VGND VGND VPWR VPWR sky130_fd_sc_hd__diode_2
XFILLER_13_169 VGND VGND VPWR VPWR sky130_fd_sc_hd__fill_1
XANTENNA_mux_top_ipin_11.mux_l1_in_0__A0 chanx_right_in[1] VGND VGND VPWR VPWR sky130_fd_sc_hd__diode_2
XANTENNA_mux_top_ipin_7.mux_l2_in_2__A1 chanx_right_in[11] VGND VGND VPWR VPWR sky130_fd_sc_hd__diode_2
XFILLER_3_59 VGND VGND VPWR VPWR sky130_fd_sc_hd__fill_1
XANTENNA_clk_1_S_FTB01_A clk_1_W_in VGND VGND VPWR VPWR sky130_fd_sc_hd__diode_2
X_63_ chanx_left_in[8] VGND VGND VPWR VPWR chanx_right_out[8] sky130_fd_sc_hd__buf_2
Xprog_clk_0_FTB00 prog_clk_0_N_in VGND VGND VPWR VPWR prog_clk_0_FTB00/X sky130_fd_sc_hd__buf_8
XFILLER_0_27 VGND VGND VPWR VPWR sky130_fd_sc_hd__fill_1
XFILLER_2_113 VGND VPWR VPWR VGND sky130_ef_sc_hd__decap_12
XANTENNA_mux_top_ipin_4.mux_l1_in_1__A0 chanx_right_in[2] VGND VGND VPWR VPWR sky130_fd_sc_hd__diode_2
XANTENNA_prog_clk_1_N_FTB01_A prog_clk_1_W_in VGND VGND VPWR VPWR sky130_fd_sc_hd__diode_2
X_46_ chanx_right_in[11] VGND VGND VPWR VPWR chanx_left_out[11] sky130_fd_sc_hd__buf_2
X_29_ VGND VGND VPWR VPWR _29_/HI _29_/LO sky130_fd_sc_hd__conb_1
Xmux_top_ipin_11.sky130_fd_sc_hd__buf_4_0_ mux_top_ipin_11.mux_l4_in_0_/X VGND VGND
+ VPWR VPWR bottom_grid_pin_11_ sky130_fd_sc_hd__buf_4
XANTENNA_mux_top_ipin_2.mux_l2_in_2__A0 chanx_left_in[14] VGND VGND VPWR VPWR sky130_fd_sc_hd__diode_2
XTAP_115 VGND VPWR sky130_fd_sc_hd__tapvpwrvgnd_1
XTAP_104 VGND VPWR sky130_fd_sc_hd__tapvpwrvgnd_1
XFILLER_16_189 VGND VGND VPWR VPWR sky130_fd_sc_hd__fill_1
XFILLER_16_101 VGND VGND VPWR VPWR sky130_fd_sc_hd__decap_4
XANTENNA_mux_top_ipin_11.mux_l1_in_0__A1 chanx_left_in[1] VGND VGND VPWR VPWR sky130_fd_sc_hd__diode_2
XFILLER_3_49 VGND VGND VPWR VPWR sky130_fd_sc_hd__decap_4
Xmux_top_ipin_2.mux_l2_in_3_ _29_/HI chanx_right_in[14] mux_top_ipin_2.mux_l2_in_3_/S
+ VGND VGND VPWR VPWR mux_top_ipin_2.mux_l2_in_3_/X sky130_fd_sc_hd__mux2_1
XFILLER_8_141 VGND VGND VPWR VPWR sky130_fd_sc_hd__fill_1
XFILLER_5_111 VGND VGND VPWR VPWR sky130_fd_sc_hd__fill_1
X_62_ chanx_left_in[7] VGND VGND VPWR VPWR chanx_right_out[7] sky130_fd_sc_hd__buf_2
XFILLER_2_103 VGND VGND VPWR VPWR sky130_fd_sc_hd__fill_2
XFILLER_2_125 VGND VGND VPWR VPWR sky130_fd_sc_hd__decap_3
XFILLER_4_81 VGND VGND VPWR VPWR sky130_fd_sc_hd__fill_1
XANTENNA_mux_top_ipin_4.mux_l1_in_1__A1 chanx_left_in[2] VGND VGND VPWR VPWR sky130_fd_sc_hd__diode_2
XFILLER_13_90 VGND VGND VPWR VPWR sky130_fd_sc_hd__decap_6
Xmux_top_ipin_2.mux_l4_in_0_ mux_top_ipin_2.mux_l3_in_1_/X mux_top_ipin_2.mux_l3_in_0_/X
+ mux_top_ipin_2.mux_l4_in_0_/S VGND VGND VPWR VPWR mux_top_ipin_2.mux_l4_in_0_/X
+ sky130_fd_sc_hd__mux2_1
X_45_ chanx_right_in[10] VGND VGND VPWR VPWR chanx_left_out[10] sky130_fd_sc_hd__buf_2
X_28_ VGND VGND VPWR VPWR _28_/HI _28_/LO sky130_fd_sc_hd__conb_1
Xmux_top_ipin_7.mux_l2_in_3_ _18_/HI chanx_right_in[17] mux_top_ipin_7.mux_l2_in_3_/S
+ VGND VGND VPWR VPWR mux_top_ipin_7.mux_l2_in_3_/X sky130_fd_sc_hd__mux2_1
Xmux_top_ipin_2.mux_l3_in_1_ mux_top_ipin_2.mux_l2_in_3_/X mux_top_ipin_2.mux_l2_in_2_/X
+ mux_top_ipin_2.mux_l3_in_1_/S VGND VGND VPWR VPWR mux_top_ipin_2.mux_l3_in_1_/X
+ sky130_fd_sc_hd__mux2_1
XFILLER_6_27 VGND VGND VPWR VPWR sky130_fd_sc_hd__fill_1
XANTENNA_mux_top_ipin_2.mux_l2_in_2__A1 chanx_right_in[6] VGND VGND VPWR VPWR sky130_fd_sc_hd__diode_2
XTAP_116 VGND VPWR sky130_fd_sc_hd__tapvpwrvgnd_1
XTAP_105 VGND VPWR sky130_fd_sc_hd__tapvpwrvgnd_1
Xmux_top_ipin_2.mux_l2_in_2_ chanx_left_in[14] chanx_right_in[6] mux_top_ipin_2.mux_l2_in_3_/S
+ VGND VGND VPWR VPWR mux_top_ipin_2.mux_l2_in_2_/X sky130_fd_sc_hd__mux2_1
Xmux_top_ipin_7.mux_l4_in_0_ mux_top_ipin_7.mux_l3_in_1_/X mux_top_ipin_7.mux_l3_in_0_/X
+ mux_top_ipin_7.mux_l4_in_0_/S VGND VGND VPWR VPWR mux_top_ipin_7.mux_l4_in_0_/X
+ sky130_fd_sc_hd__mux2_1
X_61_ chanx_left_in[6] VGND VGND VPWR VPWR chanx_right_out[6] sky130_fd_sc_hd__buf_2
XFILLER_5_101 VGND VGND VPWR VPWR sky130_fd_sc_hd__fill_1
XFILLER_5_167 VGND VGND VPWR VPWR sky130_fd_sc_hd__fill_1
XFILLER_5_189 VGND VGND VPWR VPWR sky130_fd_sc_hd__fill_1
Xmux_top_ipin_7.mux_l3_in_1_ mux_top_ipin_7.mux_l2_in_3_/X mux_top_ipin_7.mux_l2_in_2_/X
+ mux_top_ipin_7.mux_l3_in_1_/S VGND VGND VPWR VPWR mux_top_ipin_7.mux_l3_in_1_/X
+ sky130_fd_sc_hd__mux2_1
XFILLER_0_29 VGND VPWR VPWR VGND sky130_ef_sc_hd__decap_12
X_44_ chanx_right_in[9] VGND VGND VPWR VPWR chanx_left_out[9] sky130_fd_sc_hd__buf_2
XFILLER_1_3 VGND VGND VPWR VPWR sky130_fd_sc_hd__decap_4
X_27_ VGND VGND VPWR VPWR _27_/HI _27_/LO sky130_fd_sc_hd__conb_1
XANTENNA_prog_clk_2_E_FTB01_A prog_clk_2_W_in VGND VGND VPWR VPWR sky130_fd_sc_hd__diode_2
Xmux_top_ipin_7.mux_l2_in_2_ chanx_left_in[17] chanx_right_in[11] mux_top_ipin_7.mux_l2_in_3_/S
+ VGND VGND VPWR VPWR mux_top_ipin_7.mux_l2_in_2_/X sky130_fd_sc_hd__mux2_1
XANTENNA_mux_top_ipin_9.mux_l2_in_3__A1 chanx_right_in[13] VGND VGND VPWR VPWR sky130_fd_sc_hd__diode_2
Xmux_top_ipin_2.mux_l3_in_0_ mux_top_ipin_2.mux_l2_in_1_/X mux_top_ipin_2.mux_l2_in_0_/X
+ mux_top_ipin_2.mux_l3_in_1_/S VGND VGND VPWR VPWR mux_top_ipin_2.mux_l3_in_0_/X
+ sky130_fd_sc_hd__mux2_1
XANTENNA__34__A SC_IN_BOT VGND VGND VPWR VPWR sky130_fd_sc_hd__diode_2
XANTENNA_mux_top_ipin_8.mux_l1_in_0__A0 chanx_right_in[0] VGND VGND VPWR VPWR sky130_fd_sc_hd__diode_2
Xmux_top_ipin_14.mux_l2_in_3_ _27_/HI chanx_right_in[18] mux_top_ipin_14.mux_l2_in_3_/S
+ VGND VGND VPWR VPWR mux_top_ipin_14.mux_l2_in_3_/X sky130_fd_sc_hd__mux2_1
XFILLER_22_139 VGND VGND VPWR VPWR sky130_fd_sc_hd__fill_1
XTAP_117 VGND VPWR sky130_fd_sc_hd__tapvpwrvgnd_1
XTAP_106 VGND VPWR sky130_fd_sc_hd__tapvpwrvgnd_1
XPHY_0 VGND VGND VPWR VPWR sky130_fd_sc_hd__decap_3
XANTENNA_mux_top_ipin_13.mux_l2_in_0__A0 chanx_left_in[3] VGND VGND VPWR VPWR sky130_fd_sc_hd__diode_2
Xmux_top_ipin_2.mux_l2_in_1_ chanx_left_in[6] chanx_right_in[2] mux_top_ipin_2.mux_l2_in_3_/S
+ VGND VGND VPWR VPWR mux_top_ipin_2.mux_l2_in_1_/X sky130_fd_sc_hd__mux2_1
XANTENNA_mux_top_ipin_11.mux_l2_in_2__A0 chanx_left_in[15] VGND VGND VPWR VPWR sky130_fd_sc_hd__diode_2
Xmux_top_ipin_14.mux_l4_in_0_ mux_top_ipin_14.mux_l3_in_1_/X mux_top_ipin_14.mux_l3_in_0_/X
+ mux_top_ipin_14.mux_l4_in_0_/S VGND VGND VPWR VPWR mux_top_ipin_14.mux_l4_in_0_/X
+ sky130_fd_sc_hd__mux2_1
X_60_ chanx_left_in[5] VGND VGND VPWR VPWR chanx_right_out[5] sky130_fd_sc_hd__buf_2
XANTENNA__42__A chanx_right_in[7] VGND VGND VPWR VPWR sky130_fd_sc_hd__diode_2
XANTENNA_mux_top_ipin_6.mux_l2_in_1__A0 chanx_left_in[10] VGND VGND VPWR VPWR sky130_fd_sc_hd__diode_2
Xclk_3_W_FTB01 clk_3_W_in VGND VGND VPWR VPWR clk_3_W_out sky130_fd_sc_hd__buf_4
Xmux_top_ipin_7.mux_l3_in_0_ mux_top_ipin_7.mux_l2_in_1_/X mux_top_ipin_7.mux_l2_in_0_/X
+ mux_top_ipin_7.mux_l3_in_1_/S VGND VGND VPWR VPWR mux_top_ipin_7.mux_l3_in_0_/X
+ sky130_fd_sc_hd__mux2_1
XFILLER_9_28 VGND VGND VPWR VPWR sky130_fd_sc_hd__fill_1
XANTENNA__37__A chanx_right_in[2] VGND VGND VPWR VPWR sky130_fd_sc_hd__diode_2
XFILLER_2_138 VGND VGND VPWR VPWR sky130_fd_sc_hd__fill_2
X_43_ chanx_right_in[8] VGND VGND VPWR VPWR chanx_left_out[8] sky130_fd_sc_hd__buf_2
XFILLER_1_171 VGND VGND VPWR VPWR sky130_fd_sc_hd__fill_1
Xmux_top_ipin_7.sky130_fd_sc_hd__buf_4_0_ mux_top_ipin_7.mux_l4_in_0_/X VGND VGND
+ VPWR VPWR bottom_grid_pin_7_ sky130_fd_sc_hd__buf_4
Xmux_top_ipin_14.mux_l3_in_1_ mux_top_ipin_14.mux_l2_in_3_/X mux_top_ipin_14.mux_l2_in_2_/X
+ mux_top_ipin_14.mux_l3_in_1_/S VGND VGND VPWR VPWR mux_top_ipin_14.mux_l3_in_1_/X
+ sky130_fd_sc_hd__mux2_1
XANTENNA_clk_3_E_FTB01_A clk_3_W_in VGND VGND VPWR VPWR sky130_fd_sc_hd__diode_2
XFILLER_20_27 VGND VGND VPWR VPWR sky130_fd_sc_hd__fill_1
Xmux_top_ipin_7.mux_l2_in_1_ chanx_left_in[11] mux_top_ipin_7.mux_l1_in_2_/X mux_top_ipin_7.mux_l2_in_3_/S
+ VGND VGND VPWR VPWR mux_top_ipin_7.mux_l2_in_1_/X sky130_fd_sc_hd__mux2_1
X_26_ VGND VGND VPWR VPWR _26_/HI _26_/LO sky130_fd_sc_hd__conb_1
XFILLER_19_189 VGND VGND VPWR VPWR sky130_fd_sc_hd__fill_1
XFILLER_19_167 VGND VGND VPWR VPWR sky130_fd_sc_hd__fill_1
XANTENNA__50__A chanx_right_in[15] VGND VGND VPWR VPWR sky130_fd_sc_hd__diode_2
XANTENNA_mux_top_ipin_8.mux_l1_in_0__A1 chanx_left_in[0] VGND VGND VPWR VPWR sky130_fd_sc_hd__diode_2
Xmux_top_ipin_14.mux_l2_in_2_ chanx_left_in[18] chanx_right_in[10] mux_top_ipin_14.mux_l2_in_3_/S
+ VGND VGND VPWR VPWR mux_top_ipin_14.mux_l2_in_2_/X sky130_fd_sc_hd__mux2_1
XANTENNA__45__A chanx_right_in[10] VGND VGND VPWR VPWR sky130_fd_sc_hd__diode_2
XTAP_118 VGND VPWR sky130_fd_sc_hd__tapvpwrvgnd_1
XTAP_107 VGND VPWR sky130_fd_sc_hd__tapvpwrvgnd_1
XFILLER_15_181 VGND VGND VPWR VPWR sky130_fd_sc_hd__fill_2
Xmux_top_ipin_7.mux_l1_in_2_ chanx_right_in[7] chanx_left_in[7] mux_top_ipin_7.mux_l1_in_2_/S
+ VGND VGND VPWR VPWR mux_top_ipin_7.mux_l1_in_2_/X sky130_fd_sc_hd__mux2_1
XPHY_1 VGND VGND VPWR VPWR sky130_fd_sc_hd__decap_3
XANTENNA_mux_top_ipin_4.mux_l1_in_1__S mux_top_ipin_4.mux_l1_in_2_/S VGND VGND VPWR
+ VPWR sky130_fd_sc_hd__diode_2
Xmux_top_ipin_2.mux_l2_in_0_ chanx_left_in[2] mux_top_ipin_2.mux_l1_in_0_/X mux_top_ipin_2.mux_l2_in_3_/S
+ VGND VGND VPWR VPWR mux_top_ipin_2.mux_l2_in_0_/X sky130_fd_sc_hd__mux2_1
XFILLER_16_70 VGND VPWR VPWR VGND sky130_ef_sc_hd__decap_12
XFILLER_8_111 VGND VGND VPWR VPWR sky130_fd_sc_hd__fill_1
XFILLER_12_17 VGND VGND VPWR VPWR sky130_fd_sc_hd__fill_1
XANTENNA_mux_top_ipin_11.mux_l2_in_2__A1 chanx_right_in[11] VGND VGND VPWR VPWR sky130_fd_sc_hd__diode_2
XFILLER_5_147 VGND VGND VPWR VPWR sky130_fd_sc_hd__fill_1
XANTENNA_mux_top_ipin_6.mux_l2_in_1__A1 chanx_right_in[2] VGND VGND VPWR VPWR sky130_fd_sc_hd__diode_2
Xmem_top_ipin_1.sky130_fd_sc_hd__dfxtp_1_3_ prog_clk_0_FTB00/X mux_top_ipin_1.mux_l3_in_1_/S
+ VGND VGND VPWR VPWR mux_top_ipin_1.mux_l4_in_0_/S sky130_fd_sc_hd__dfxtp_1
XANTENNA__53__A chanx_right_in[18] VGND VGND VPWR VPWR sky130_fd_sc_hd__diode_2
X_42_ chanx_right_in[7] VGND VGND VPWR VPWR chanx_left_out[7] sky130_fd_sc_hd__buf_2
XANTENNA_mux_top_ipin_4.mux_l2_in_3__A1 chanx_right_in[14] VGND VGND VPWR VPWR sky130_fd_sc_hd__diode_2
Xmem_top_ipin_11.sky130_fd_sc_hd__dfxtp_1_3_ prog_clk_0_FTB00/X mux_top_ipin_11.mux_l3_in_1_/S
+ VGND VGND VPWR VPWR mux_top_ipin_11.mux_l4_in_0_/S sky130_fd_sc_hd__dfxtp_1
XANTENNA_mux_top_ipin_3.mux_l1_in_0__A0 chanx_right_in[1] VGND VGND VPWR VPWR sky130_fd_sc_hd__diode_2
Xmux_top_ipin_14.mux_l3_in_0_ mux_top_ipin_14.mux_l2_in_1_/X mux_top_ipin_14.mux_l2_in_0_/X
+ mux_top_ipin_14.mux_l3_in_1_/S VGND VGND VPWR VPWR mux_top_ipin_14.mux_l3_in_0_/X
+ sky130_fd_sc_hd__mux2_1
XANTENNA__48__A chanx_right_in[13] VGND VGND VPWR VPWR sky130_fd_sc_hd__diode_2
Xmux_top_ipin_7.mux_l2_in_0_ mux_top_ipin_7.mux_l1_in_1_/X mux_top_ipin_7.mux_l1_in_0_/X
+ mux_top_ipin_7.mux_l2_in_3_/S VGND VGND VPWR VPWR mux_top_ipin_7.mux_l2_in_0_/X
+ sky130_fd_sc_hd__mux2_1
X_25_ VGND VGND VPWR VPWR _25_/HI _25_/LO sky130_fd_sc_hd__conb_1
XFILLER_1_63 VGND VGND VPWR VPWR sky130_fd_sc_hd__fill_1
XFILLER_1_52 VGND VGND VPWR VPWR sky130_fd_sc_hd__decap_4
XFILLER_1_30 VGND VPWR VPWR VGND sky130_ef_sc_hd__decap_12
XFILLER_19_92 VGND VPWR VPWR VGND sky130_ef_sc_hd__decap_12
XFILLER_16_138 VGND VGND VPWR VPWR sky130_fd_sc_hd__fill_2
XFILLER_16_105 VGND VGND VPWR VPWR sky130_fd_sc_hd__fill_1
XFILLER_15_39 VGND VGND VPWR VPWR sky130_fd_sc_hd__decap_6
Xmux_top_ipin_14.mux_l2_in_1_ chanx_left_in[10] chanx_right_in[2] mux_top_ipin_14.mux_l2_in_3_/S
+ VGND VGND VPWR VPWR mux_top_ipin_14.mux_l2_in_1_/X sky130_fd_sc_hd__mux2_1
Xmux_top_ipin_14.sky130_fd_sc_hd__buf_4_0_ mux_top_ipin_14.mux_l4_in_0_/X VGND VGND
+ VPWR VPWR bottom_grid_pin_14_ sky130_fd_sc_hd__buf_4
XTAP_119 VGND VPWR sky130_fd_sc_hd__tapvpwrvgnd_1
XTAP_108 VGND VPWR sky130_fd_sc_hd__tapvpwrvgnd_1
Xmux_top_ipin_7.mux_l1_in_1_ chanx_right_in[3] chanx_left_in[3] mux_top_ipin_7.mux_l1_in_2_/S
+ VGND VGND VPWR VPWR mux_top_ipin_7.mux_l1_in_1_/X sky130_fd_sc_hd__mux2_1
XANTENNA__61__A chanx_left_in[6] VGND VGND VPWR VPWR sky130_fd_sc_hd__diode_2
XPHY_2 VGND VGND VPWR VPWR sky130_fd_sc_hd__decap_3
XFILLER_16_82 VGND VGND VPWR VPWR sky130_fd_sc_hd__fill_2
Xmem_top_ipin_4.sky130_fd_sc_hd__dfxtp_1_3_ prog_clk_0_FTB00/X mux_top_ipin_4.mux_l3_in_1_/S
+ VGND VGND VPWR VPWR mux_top_ipin_4.mux_l4_in_0_/S sky130_fd_sc_hd__dfxtp_1
XANTENNA__56__A chanx_left_in[1] VGND VGND VPWR VPWR sky130_fd_sc_hd__diode_2
XANTENNA_mux_top_ipin_1.mux_l2_in_1__A0 chanx_left_in[5] VGND VGND VPWR VPWR sky130_fd_sc_hd__diode_2
Xmem_top_ipin_14.sky130_fd_sc_hd__dfxtp_1_3_ prog_clk_0_FTB00/X mux_top_ipin_14.mux_l3_in_1_/S
+ VGND VGND VPWR VPWR mux_top_ipin_14.mux_l4_in_0_/S sky130_fd_sc_hd__dfxtp_1
XFILLER_4_41 VGND VGND VPWR VPWR sky130_fd_sc_hd__fill_1
XFILLER_4_85 VGND VGND VPWR VPWR sky130_fd_sc_hd__fill_1
Xmem_top_ipin_1.sky130_fd_sc_hd__dfxtp_1_2_ prog_clk_0_FTB00/X mux_top_ipin_1.mux_l2_in_3_/S
+ VGND VGND VPWR VPWR mux_top_ipin_1.mux_l3_in_1_/S sky130_fd_sc_hd__dfxtp_1
XANTENNA_mux_top_ipin_15.mux_l1_in_2__A0 chanx_right_in[9] VGND VGND VPWR VPWR sky130_fd_sc_hd__diode_2
Xmux_top_ipin_2.mux_l1_in_0_ chanx_right_in[0] chanx_left_in[0] mux_top_ipin_2.mux_l1_in_0_/S
+ VGND VGND VPWR VPWR mux_top_ipin_2.mux_l1_in_0_/X sky130_fd_sc_hd__mux2_1
X_41_ chanx_right_in[6] VGND VGND VPWR VPWR chanx_left_out[6] sky130_fd_sc_hd__buf_2
Xmem_top_ipin_11.sky130_fd_sc_hd__dfxtp_1_2_ prog_clk_0_FTB00/X mux_top_ipin_11.mux_l2_in_3_/S
+ VGND VGND VPWR VPWR mux_top_ipin_11.mux_l3_in_1_/S sky130_fd_sc_hd__dfxtp_1
XANTENNA_mux_top_ipin_3.mux_l1_in_0__A1 chanx_left_in[1] VGND VGND VPWR VPWR sky130_fd_sc_hd__diode_2
XANTENNA__64__A chanx_left_in[9] VGND VGND VPWR VPWR sky130_fd_sc_hd__diode_2
X_24_ VGND VGND VPWR VPWR _24_/HI _24_/LO sky130_fd_sc_hd__conb_1
XFILLER_1_42 VGND VGND VPWR VPWR sky130_fd_sc_hd__decap_4
XANTENNA_mux_top_ipin_15.mux_l2_in_1__A0 chanx_left_in[15] VGND VGND VPWR VPWR sky130_fd_sc_hd__diode_2
Xmem_top_ipin_7.sky130_fd_sc_hd__dfxtp_1_3_ prog_clk_0_FTB00/X mux_top_ipin_7.mux_l3_in_1_/S
+ VGND VGND VPWR VPWR mux_top_ipin_7.mux_l4_in_0_/S sky130_fd_sc_hd__dfxtp_1
XANTENNA__59__A chanx_left_in[4] VGND VGND VPWR VPWR sky130_fd_sc_hd__diode_2
Xmux_top_ipin_14.mux_l2_in_0_ chanx_left_in[2] mux_top_ipin_14.mux_l1_in_0_/X mux_top_ipin_14.mux_l2_in_3_/S
+ VGND VGND VPWR VPWR mux_top_ipin_14.mux_l2_in_0_/X sky130_fd_sc_hd__mux2_1
Xmux_top_ipin_0.sky130_fd_sc_hd__buf_4_0_ mux_top_ipin_0.mux_l4_in_0_/X VGND VGND
+ VPWR VPWR bottom_grid_pin_0_ sky130_fd_sc_hd__buf_4
XFILLER_21_50 VGND VGND VPWR VPWR sky130_fd_sc_hd__decap_6
XTAP_109 VGND VPWR sky130_fd_sc_hd__tapvpwrvgnd_1
Xmux_top_ipin_7.mux_l1_in_0_ chanx_right_in[1] chanx_left_in[1] mux_top_ipin_7.mux_l1_in_2_/S
+ VGND VGND VPWR VPWR mux_top_ipin_7.mux_l1_in_0_/X sky130_fd_sc_hd__mux2_1
XFILLER_22_109 VGND VGND VPWR VPWR sky130_fd_sc_hd__decap_3
XANTENNA_mux_top_ipin_8.mux_l2_in_2__A0 chanx_left_in[18] VGND VGND VPWR VPWR sky130_fd_sc_hd__diode_2
XPHY_3 VGND VGND VPWR VPWR sky130_fd_sc_hd__decap_3
Xmem_top_ipin_4.sky130_fd_sc_hd__dfxtp_1_2_ prog_clk_0_FTB00/X mux_top_ipin_4.mux_l2_in_3_/S
+ VGND VGND VPWR VPWR mux_top_ipin_4.mux_l3_in_1_/S sky130_fd_sc_hd__dfxtp_1
XANTENNA__72__A chanx_left_in[17] VGND VGND VPWR VPWR sky130_fd_sc_hd__diode_2
XANTENNA_mux_top_ipin_1.mux_l2_in_1__A1 chanx_right_in[3] VGND VGND VPWR VPWR sky130_fd_sc_hd__diode_2
Xmem_top_ipin_14.sky130_fd_sc_hd__dfxtp_1_2_ prog_clk_0_FTB00/X mux_top_ipin_14.mux_l2_in_3_/S
+ VGND VGND VPWR VPWR mux_top_ipin_14.mux_l3_in_1_/S sky130_fd_sc_hd__dfxtp_1
XANTENNA__67__A chanx_left_in[12] VGND VGND VPWR VPWR sky130_fd_sc_hd__diode_2
Xmem_top_ipin_1.sky130_fd_sc_hd__dfxtp_1_1_ prog_clk_0_FTB00/X mux_top_ipin_1.mux_l1_in_0_/S
+ VGND VGND VPWR VPWR mux_top_ipin_1.mux_l2_in_3_/S sky130_fd_sc_hd__dfxtp_1
XANTENNA_mux_top_ipin_15.mux_l1_in_2__A1 chanx_left_in[9] VGND VGND VPWR VPWR sky130_fd_sc_hd__diode_2
XFILLER_1_163 VGND VGND VPWR VPWR sky130_fd_sc_hd__fill_1
X_40_ chanx_right_in[5] VGND VGND VPWR VPWR chanx_left_out[5] sky130_fd_sc_hd__buf_2
XFILLER_18_18 VGND VGND VPWR VPWR sky130_fd_sc_hd__fill_1
Xmem_top_ipin_11.sky130_fd_sc_hd__dfxtp_1_1_ prog_clk_0_FTB00/X mux_top_ipin_11.mux_l1_in_2_/S
+ VGND VGND VPWR VPWR mux_top_ipin_11.mux_l2_in_3_/S sky130_fd_sc_hd__dfxtp_1
XFILLER_1_76 VGND VPWR VPWR VGND sky130_ef_sc_hd__decap_12
XFILLER_1_21 VGND VGND VPWR VPWR sky130_fd_sc_hd__decap_3
X_23_ VGND VGND VPWR VPWR _23_/HI _23_/LO sky130_fd_sc_hd__conb_1
Xmem_top_ipin_7.sky130_fd_sc_hd__dfxtp_1_2_ prog_clk_0_FTB00/X mux_top_ipin_7.mux_l2_in_3_/S
+ VGND VGND VPWR VPWR mux_top_ipin_7.mux_l3_in_1_/S sky130_fd_sc_hd__dfxtp_1
XFILLER_19_104 VGND VGND VPWR VPWR sky130_fd_sc_hd__decap_8
XANTENNA_mux_top_ipin_13.mux_l2_in_3__A1 chanx_right_in[17] VGND VGND VPWR VPWR sky130_fd_sc_hd__diode_2
XANTENNA_mux_top_ipin_12.mux_l1_in_0__A0 chanx_right_in[0] VGND VGND VPWR VPWR sky130_fd_sc_hd__diode_2
XANTENNA_mux_top_ipin_8.mux_l2_in_2__A1 chanx_right_in[12] VGND VGND VPWR VPWR sky130_fd_sc_hd__diode_2
XPHY_4 VGND VGND VPWR VPWR sky130_fd_sc_hd__decap_3
XANTENNA_mux_top_ipin_4.mux_l2_in_2__S mux_top_ipin_4.mux_l2_in_3_/S VGND VGND VPWR
+ VPWR sky130_fd_sc_hd__diode_2
XFILLER_21_187 VGND VGND VPWR VPWR sky130_fd_sc_hd__decap_3
Xmem_top_ipin_4.sky130_fd_sc_hd__dfxtp_1_1_ prog_clk_0_FTB00/X mux_top_ipin_4.mux_l1_in_2_/S
+ VGND VGND VPWR VPWR mux_top_ipin_4.mux_l2_in_3_/S sky130_fd_sc_hd__dfxtp_1
Xmux_top_ipin_14.mux_l1_in_0_ chanx_right_in[0] chanx_left_in[0] mux_top_ipin_14.mux_l1_in_0_/S
+ VGND VGND VPWR VPWR mux_top_ipin_14.mux_l1_in_0_/X sky130_fd_sc_hd__mux2_1
XFILLER_5_117 VGND VGND VPWR VPWR sky130_fd_sc_hd__fill_1
Xmem_top_ipin_14.sky130_fd_sc_hd__dfxtp_1_1_ prog_clk_0_FTB00/X mux_top_ipin_14.mux_l1_in_0_/S
+ VGND VGND VPWR VPWR mux_top_ipin_14.mux_l2_in_3_/S sky130_fd_sc_hd__dfxtp_1
Xmem_top_ipin_1.sky130_fd_sc_hd__dfxtp_1_0_ prog_clk_0_FTB00/X mux_top_ipin_0.mux_l4_in_0_/S
+ VGND VGND VPWR VPWR mux_top_ipin_1.mux_l1_in_0_/S sky130_fd_sc_hd__dfxtp_1
XANTENNA_mux_top_ipin_10.mux_l2_in_1__A0 chanx_left_in[6] VGND VGND VPWR VPWR sky130_fd_sc_hd__diode_2
XANTENNA_mux_top_ipin_5.mux_l2_in_0__A0 chanx_left_in[3] VGND VGND VPWR VPWR sky130_fd_sc_hd__diode_2
Xmem_top_ipin_11.sky130_fd_sc_hd__dfxtp_1_0_ prog_clk_0_FTB00/X mux_top_ipin_10.mux_l4_in_0_/S
+ VGND VGND VPWR VPWR mux_top_ipin_11.mux_l1_in_2_/S sky130_fd_sc_hd__dfxtp_1
XFILLER_1_88 VGND VPWR VPWR VGND sky130_ef_sc_hd__decap_12
X_22_ VGND VGND VPWR VPWR _22_/HI _22_/LO sky130_fd_sc_hd__conb_1
XANTENNA_mux_top_ipin_3.mux_l2_in_2__A0 chanx_left_in[19] VGND VGND VPWR VPWR sky130_fd_sc_hd__diode_2
Xmem_top_ipin_7.sky130_fd_sc_hd__dfxtp_1_1_ prog_clk_0_FTB00/X mux_top_ipin_7.mux_l1_in_2_/S
+ VGND VGND VPWR VPWR mux_top_ipin_7.mux_l2_in_3_/S sky130_fd_sc_hd__dfxtp_1
XFILLER_18_3 VGND VGND VPWR VPWR sky130_fd_sc_hd__fill_2
XANTENNA_mux_top_ipin_12.mux_l1_in_0__A1 chanx_left_in[0] VGND VGND VPWR VPWR sky130_fd_sc_hd__diode_2
XPHY_5 VGND VGND VPWR VPWR sky130_fd_sc_hd__decap_3
XANTENNA_prog_clk_3_W_FTB01_A prog_clk_3_W_in VGND VGND VPWR VPWR sky130_fd_sc_hd__diode_2
Xmem_top_ipin_4.sky130_fd_sc_hd__dfxtp_1_0_ prog_clk_0_FTB00/X mux_top_ipin_3.mux_l4_in_0_/S
+ VGND VGND VPWR VPWR mux_top_ipin_4.mux_l1_in_2_/S sky130_fd_sc_hd__dfxtp_1
XFILLER_16_41 VGND VGND VPWR VPWR sky130_fd_sc_hd__decap_4
Xmem_top_ipin_14.sky130_fd_sc_hd__dfxtp_1_0_ prog_clk_0_FTB00/X mux_top_ipin_13.mux_l4_in_0_/S
+ VGND VGND VPWR VPWR mux_top_ipin_14.mux_l1_in_0_/S sky130_fd_sc_hd__dfxtp_1
Xmux_top_ipin_3.mux_l2_in_3_ _30_/HI chanx_right_in[19] mux_top_ipin_3.mux_l2_in_3_/S
+ VGND VGND VPWR VPWR mux_top_ipin_3.mux_l2_in_3_/X sky130_fd_sc_hd__mux2_1
XANTENNA_mux_top_ipin_10.mux_l2_in_1__A1 chanx_right_in[2] VGND VGND VPWR VPWR sky130_fd_sc_hd__diode_2
X_21_ VGND VGND VPWR VPWR _21_/HI _21_/LO sky130_fd_sc_hd__conb_1
XANTENNA_mux_top_ipin_3.mux_l2_in_2__A1 chanx_right_in[13] VGND VGND VPWR VPWR sky130_fd_sc_hd__diode_2