* NGSPICE file created from cbx_1__0_.ext - technology: sky130A

* Black-box entry subcircuit for sky130_fd_sc_hd__fill_2 abstract view
.subckt sky130_fd_sc_hd__fill_2 VGND VNB VPB VPWR
.ends

* Black-box entry subcircuit for sky130_fd_sc_hd__dfxtp_1 abstract view
.subckt sky130_fd_sc_hd__dfxtp_1 CLK D VGND VNB VPB VPWR Q
.ends

* Black-box entry subcircuit for sky130_fd_sc_hd__diode_2 abstract view
.subckt sky130_fd_sc_hd__diode_2 DIODE VGND VNB VPB VPWR
.ends

* Black-box entry subcircuit for sky130_fd_sc_hd__mux2_1 abstract view
.subckt sky130_fd_sc_hd__mux2_1 A0 A1 S VGND VNB VPB VPWR X
.ends

* Black-box entry subcircuit for sky130_fd_sc_hd__decap_3 abstract view
.subckt sky130_fd_sc_hd__decap_3 VGND VNB VPB VPWR
.ends

* Black-box entry subcircuit for sky130_fd_sc_hd__fill_1 abstract view
.subckt sky130_fd_sc_hd__fill_1 VGND VNB VPB VPWR
.ends

* Black-box entry subcircuit for sky130_fd_sc_hd__clkbuf_1 abstract view
.subckt sky130_fd_sc_hd__clkbuf_1 A VGND VNB VPB VPWR X
.ends

* Black-box entry subcircuit for sky130_fd_sc_hd__decap_12 abstract view
.subckt sky130_fd_sc_hd__decap_12 VGND VNB VPB VPWR
.ends

* Black-box entry subcircuit for sky130_fd_sc_hd__decap_4 abstract view
.subckt sky130_fd_sc_hd__decap_4 VGND VNB VPB VPWR
.ends

* Black-box entry subcircuit for sky130_fd_sc_hd__clkbuf_2 abstract view
.subckt sky130_fd_sc_hd__clkbuf_2 A VGND VNB VPB VPWR X
.ends

* Black-box entry subcircuit for sky130_fd_sc_hd__inv_1 abstract view
.subckt sky130_fd_sc_hd__inv_1 A VGND VNB VPB VPWR Y
.ends

* Black-box entry subcircuit for sky130_fd_sc_hd__decap_8 abstract view
.subckt sky130_fd_sc_hd__decap_8 VGND VNB VPB VPWR
.ends

* Black-box entry subcircuit for sky130_fd_sc_hd__buf_1 abstract view
.subckt sky130_fd_sc_hd__buf_1 A VGND VNB VPB VPWR X
.ends

* Black-box entry subcircuit for sky130_fd_sc_hd__buf_8 abstract view
.subckt sky130_fd_sc_hd__buf_8 A VGND VNB VPB VPWR X
.ends

* Black-box entry subcircuit for sky130_fd_sc_hd__or2b_2 abstract view
.subckt sky130_fd_sc_hd__or2b_2 A B_N VGND VNB VPB VPWR X
.ends

* Black-box entry subcircuit for sky130_fd_sc_hd__tapvpwrvgnd_1 abstract view
.subckt sky130_fd_sc_hd__tapvpwrvgnd_1 VGND VPWR
.ends

* Black-box entry subcircuit for sky130_fd_sc_hd__conb_1 abstract view
.subckt sky130_fd_sc_hd__conb_1 VGND VNB VPB VPWR HI LO
.ends

* Black-box entry subcircuit for sky130_fd_sc_hd__ebufn_2 abstract view
.subckt sky130_fd_sc_hd__ebufn_2 A TE_B VGND VNB VPB VPWR Z
.ends

* Black-box entry subcircuit for sky130_fd_sc_hd__ebufn_4 abstract view
.subckt sky130_fd_sc_hd__ebufn_4 A TE_B VGND VNB VPB VPWR Z
.ends

* Black-box entry subcircuit for sky130_fd_sc_hd__decap_6 abstract view
.subckt sky130_fd_sc_hd__decap_6 VGND VNB VPB VPWR
.ends

* Black-box entry subcircuit for sky130_fd_sc_hd__or2b_1 abstract view
.subckt sky130_fd_sc_hd__or2b_1 A B_N VGND VNB VPB VPWR X
.ends

* Black-box entry subcircuit for sky130_fd_sc_hd__buf_2 abstract view
.subckt sky130_fd_sc_hd__buf_2 A VGND VNB VPB VPWR X
.ends

* Black-box entry subcircuit for sky130_fd_sc_hd__buf_4 abstract view
.subckt sky130_fd_sc_hd__buf_4 A VGND VNB VPB VPWR X
.ends

* Black-box entry subcircuit for sky130_fd_sc_hd__clkbuf_16 abstract view
.subckt sky130_fd_sc_hd__clkbuf_16 A VGND VNB VPB VPWR X
.ends

* Black-box entry subcircuit for sky130_fd_sc_hd__ebufn_1 abstract view
.subckt sky130_fd_sc_hd__ebufn_1 A TE_B VGND VNB VPB VPWR Z
.ends

.subckt cbx_1__0_ IO_ISOL_N SC_IN_BOT SC_IN_TOP SC_OUT_BOT SC_OUT_TOP bottom_grid_pin_0_
+ bottom_grid_pin_10_ bottom_grid_pin_12_ bottom_grid_pin_14_ bottom_grid_pin_16_
+ bottom_grid_pin_2_ bottom_grid_pin_4_ bottom_grid_pin_6_ bottom_grid_pin_8_ ccff_head
+ ccff_tail chanx_left_in[0] chanx_left_in[10] chanx_left_in[11] chanx_left_in[12]
+ chanx_left_in[13] chanx_left_in[14] chanx_left_in[15] chanx_left_in[16] chanx_left_in[17]
+ chanx_left_in[18] chanx_left_in[19] chanx_left_in[1] chanx_left_in[2] chanx_left_in[3]
+ chanx_left_in[4] chanx_left_in[5] chanx_left_in[6] chanx_left_in[7] chanx_left_in[8]
+ chanx_left_in[9] chanx_left_out[0] chanx_left_out[10] chanx_left_out[11] chanx_left_out[12]
+ chanx_left_out[13] chanx_left_out[14] chanx_left_out[15] chanx_left_out[16] chanx_left_out[17]
+ chanx_left_out[18] chanx_left_out[19] chanx_left_out[1] chanx_left_out[2] chanx_left_out[3]
+ chanx_left_out[4] chanx_left_out[5] chanx_left_out[6] chanx_left_out[7] chanx_left_out[8]
+ chanx_left_out[9] chanx_right_in[0] chanx_right_in[10] chanx_right_in[11] chanx_right_in[12]
+ chanx_right_in[13] chanx_right_in[14] chanx_right_in[15] chanx_right_in[16] chanx_right_in[17]
+ chanx_right_in[18] chanx_right_in[19] chanx_right_in[1] chanx_right_in[2] chanx_right_in[3]
+ chanx_right_in[4] chanx_right_in[5] chanx_right_in[6] chanx_right_in[7] chanx_right_in[8]
+ chanx_right_in[9] chanx_right_out[0] chanx_right_out[10] chanx_right_out[11] chanx_right_out[12]
+ chanx_right_out[13] chanx_right_out[14] chanx_right_out[15] chanx_right_out[16]
+ chanx_right_out[17] chanx_right_out[18] chanx_right_out[19] chanx_right_out[1] chanx_right_out[2]
+ chanx_right_out[3] chanx_right_out[4] chanx_right_out[5] chanx_right_out[6] chanx_right_out[7]
+ chanx_right_out[8] chanx_right_out[9] gfpga_pad_EMBEDDED_IO_HD_SOC_DIR[0] gfpga_pad_EMBEDDED_IO_HD_SOC_DIR[1]
+ gfpga_pad_EMBEDDED_IO_HD_SOC_DIR[2] gfpga_pad_EMBEDDED_IO_HD_SOC_DIR[3] gfpga_pad_EMBEDDED_IO_HD_SOC_DIR[4]
+ gfpga_pad_EMBEDDED_IO_HD_SOC_DIR[5] gfpga_pad_EMBEDDED_IO_HD_SOC_DIR[6] gfpga_pad_EMBEDDED_IO_HD_SOC_DIR[7]
+ gfpga_pad_EMBEDDED_IO_HD_SOC_DIR[8] gfpga_pad_EMBEDDED_IO_HD_SOC_IN[0] gfpga_pad_EMBEDDED_IO_HD_SOC_IN[1]
+ gfpga_pad_EMBEDDED_IO_HD_SOC_IN[2] gfpga_pad_EMBEDDED_IO_HD_SOC_IN[3] gfpga_pad_EMBEDDED_IO_HD_SOC_IN[4]
+ gfpga_pad_EMBEDDED_IO_HD_SOC_IN[5] gfpga_pad_EMBEDDED_IO_HD_SOC_IN[6] gfpga_pad_EMBEDDED_IO_HD_SOC_IN[7]
+ gfpga_pad_EMBEDDED_IO_HD_SOC_IN[8] gfpga_pad_EMBEDDED_IO_HD_SOC_OUT[0] gfpga_pad_EMBEDDED_IO_HD_SOC_OUT[1]
+ gfpga_pad_EMBEDDED_IO_HD_SOC_OUT[2] gfpga_pad_EMBEDDED_IO_HD_SOC_OUT[3] gfpga_pad_EMBEDDED_IO_HD_SOC_OUT[4]
+ gfpga_pad_EMBEDDED_IO_HD_SOC_OUT[5] gfpga_pad_EMBEDDED_IO_HD_SOC_OUT[6] gfpga_pad_EMBEDDED_IO_HD_SOC_OUT[7]
+ gfpga_pad_EMBEDDED_IO_HD_SOC_OUT[8] prog_clk_0_N_in prog_clk_0_W_out top_width_0_height_0__pin_0_
+ top_width_0_height_0__pin_10_ top_width_0_height_0__pin_11_lower top_width_0_height_0__pin_11_upper
+ top_width_0_height_0__pin_12_ top_width_0_height_0__pin_13_lower top_width_0_height_0__pin_13_upper
+ top_width_0_height_0__pin_14_ top_width_0_height_0__pin_15_lower top_width_0_height_0__pin_15_upper
+ top_width_0_height_0__pin_16_ top_width_0_height_0__pin_17_lower top_width_0_height_0__pin_17_upper
+ top_width_0_height_0__pin_1_lower top_width_0_height_0__pin_1_upper top_width_0_height_0__pin_2_
+ top_width_0_height_0__pin_3_lower top_width_0_height_0__pin_3_upper top_width_0_height_0__pin_4_
+ top_width_0_height_0__pin_5_lower top_width_0_height_0__pin_5_upper top_width_0_height_0__pin_6_
+ top_width_0_height_0__pin_7_lower top_width_0_height_0__pin_7_upper top_width_0_height_0__pin_8_
+ top_width_0_height_0__pin_9_lower top_width_0_height_0__pin_9_upper VPWR VGND
XFILLER_22_122 VGND VGND VPWR VPWR sky130_fd_sc_hd__fill_2
Xmem_top_ipin_8.sky130_fd_sc_hd__dfxtp_1_0_ mem_top_ipin_8.sky130_fd_sc_hd__dfxtp_1_3_/CLK
+ mux_top_ipin_7.mux_l4_in_0_/S VGND VGND VPWR VPWR mux_top_ipin_8.mux_l1_in_2_/S
+ sky130_fd_sc_hd__dfxtp_1
XANTENNA_mux_top_ipin_7.mux_l1_in_0__A1 _34_/A VGND VGND VPWR VPWR sky130_fd_sc_hd__diode_2
Xmux_top_ipin_1.mux_l1_in_1_ _85_/A _36_/A mux_top_ipin_1.mux_l1_in_2_/S VGND VGND
+ VPWR VPWR mux_top_ipin_1.mux_l1_in_1_/X sky130_fd_sc_hd__mux2_1
XFILLER_13_111 VGND VGND VPWR VPWR sky130_fd_sc_hd__decap_3
XFILLER_9_159 VGND VGND VPWR VPWR sky130_fd_sc_hd__fill_1
X_83_ _83_/A VGND VGND VPWR VPWR _83_/X sky130_fd_sc_hd__clkbuf_1
XFILLER_3_67 VGND VGND VPWR VPWR sky130_fd_sc_hd__fill_1
XFILLER_12_87 VGND VGND VPWR VPWR sky130_fd_sc_hd__fill_1
XFILLER_12_32 VGND VGND VPWR VPWR sky130_fd_sc_hd__decap_12
XANTENNA_mux_top_ipin_5.mux_l1_in_2__A1 _38_/A VGND VGND VPWR VPWR sky130_fd_sc_hd__diode_2
X_66_ _66_/A VGND VGND VPWR VPWR _66_/X sky130_fd_sc_hd__clkbuf_1
Xmux_top_ipin_6.mux_l2_in_0_ mux_top_ipin_6.mux_l1_in_1_/X mux_top_ipin_6.mux_l1_in_0_/X
+ mux_top_ipin_6.mux_l2_in_3_/S VGND VGND VPWR VPWR mux_top_ipin_6.mux_l2_in_0_/X
+ sky130_fd_sc_hd__mux2_1
XANTENNA_input55_A top_width_0_height_0__pin_10_ VGND VGND VPWR VPWR sky130_fd_sc_hd__diode_2
XFILLER_9_33 VGND VGND VPWR VPWR sky130_fd_sc_hd__fill_1
X_49_ _49_/A VGND VGND VPWR VPWR _49_/X sky130_fd_sc_hd__clkbuf_1
XFILLER_18_53 VGND VGND VPWR VPWR sky130_fd_sc_hd__decap_12
Xmux_top_ipin_6.mux_l1_in_1_ _84_/A _35_/A mux_top_ipin_6.mux_l1_in_2_/S VGND VGND
+ VPWR VPWR mux_top_ipin_6.mux_l1_in_1_/X sky130_fd_sc_hd__mux2_1
XFILLER_20_87 VGND VGND VPWR VPWR sky130_fd_sc_hd__decap_12
XANTENNA_mux_top_ipin_3.mux_l2_in_3__A1 _32_/A VGND VGND VPWR VPWR sky130_fd_sc_hd__diode_2
XANTENNA_input18_A chanx_left_in[3] VGND VGND VPWR VPWR sky130_fd_sc_hd__diode_2
XANTENNA_mux_top_ipin_2.mux_l1_in_0__A0 _82_/A VGND VGND VPWR VPWR sky130_fd_sc_hd__diode_2
XFILLER_19_172 VGND VGND VPWR VPWR sky130_fd_sc_hd__decap_4
Xoutput64 _81_/X VGND VGND VPWR VPWR SC_OUT_TOP sky130_fd_sc_hd__clkbuf_2
Xoutput86 _83_/X VGND VGND VPWR VPWR chanx_left_out[1] sky130_fd_sc_hd__clkbuf_2
Xoutput75 _82_/X VGND VGND VPWR VPWR chanx_left_out[0] sky130_fd_sc_hd__clkbuf_2
XANTENNA_mux_top_ipin_0.mux_l1_in_2__A0 _86_/A VGND VGND VPWR VPWR sky130_fd_sc_hd__diode_2
Xoutput97 _44_/X VGND VGND VPWR VPWR chanx_right_out[11] sky130_fd_sc_hd__clkbuf_2
XFILLER_22_101 VGND VGND VPWR VPWR sky130_fd_sc_hd__fill_2
Xmux_top_ipin_1.mux_l1_in_0_ _83_/A _34_/A mux_top_ipin_1.mux_l1_in_2_/S VGND VGND
+ VPWR VPWR mux_top_ipin_1.mux_l1_in_0_/X sky130_fd_sc_hd__mux2_1
XFILLER_13_156 VGND VGND VPWR VPWR sky130_fd_sc_hd__fill_1
X_82_ _82_/A VGND VGND VPWR VPWR _82_/X sky130_fd_sc_hd__clkbuf_1
XFILLER_12_66 VGND VGND VPWR VPWR sky130_fd_sc_hd__fill_1
XFILLER_12_44 VGND VGND VPWR VPWR sky130_fd_sc_hd__decap_4
XANTENNA_mux_top_ipin_0.mux_l2_in_1__A0 _43_/A VGND VGND VPWR VPWR sky130_fd_sc_hd__diode_2
X_65_ _65_/A VGND VGND VPWR VPWR _65_/X sky130_fd_sc_hd__clkbuf_1
XFILLER_5_185 VGND VGND VPWR VPWR sky130_fd_sc_hd__fill_1
XANTENNA_prog_clk_0_W_FTB01_A prog_clk_0_N_in VGND VGND VPWR VPWR sky130_fd_sc_hd__diode_2
XFILLER_9_67 VGND VGND VPWR VPWR sky130_fd_sc_hd__fill_1
XFILLER_2_144 VGND VGND VPWR VPWR sky130_fd_sc_hd__fill_1
XANTENNA_input48_A gfpga_pad_EMBEDDED_IO_HD_SOC_IN[3] VGND VGND VPWR VPWR sky130_fd_sc_hd__diode_2
X_48_ _48_/A VGND VGND VPWR VPWR _48_/X sky130_fd_sc_hd__clkbuf_1
XFILLER_18_87 VGND VGND VPWR VPWR sky130_fd_sc_hd__decap_12
XFILLER_18_65 VGND VGND VPWR VPWR sky130_fd_sc_hd__decap_12
Xmux_top_ipin_6.mux_l1_in_0_ _82_/A _33_/A mux_top_ipin_6.mux_l1_in_2_/S VGND VGND
+ VPWR VPWR mux_top_ipin_6.mux_l1_in_0_/X sky130_fd_sc_hd__mux2_1
XFILLER_20_99 VGND VGND VPWR VPWR sky130_fd_sc_hd__decap_12
XFILLER_19_151 VGND VGND VPWR VPWR sky130_fd_sc_hd__decap_12
XANTENNA_mux_top_ipin_2.mux_l1_in_0__A1 _33_/A VGND VGND VPWR VPWR sky130_fd_sc_hd__diode_2
XFILLER_15_55 VGND VGND VPWR VPWR sky130_fd_sc_hd__fill_2
XANTENNA_input30_A chanx_right_in[14] VGND VGND VPWR VPWR sky130_fd_sc_hd__diode_2
Xoutput65 output65/A VGND VGND VPWR VPWR bottom_grid_pin_0_ sky130_fd_sc_hd__clkbuf_2
Xoutput87 _84_/X VGND VGND VPWR VPWR chanx_left_out[2] sky130_fd_sc_hd__clkbuf_2
Xoutput76 _23_/X VGND VGND VPWR VPWR chanx_left_out[10] sky130_fd_sc_hd__clkbuf_2
Xoutput98 _45_/X VGND VGND VPWR VPWR chanx_right_out[12] sky130_fd_sc_hd__clkbuf_2
XANTENNA_mux_top_ipin_0.mux_l1_in_2__A1 _37_/A VGND VGND VPWR VPWR sky130_fd_sc_hd__diode_2
X_81_ _81_/A VGND VGND VPWR VPWR _81_/X sky130_fd_sc_hd__clkbuf_1
XANTENNA_mux_top_ipin_7.mux_l2_in_2__A0 _50_/A VGND VGND VPWR VPWR sky130_fd_sc_hd__diode_2
XFILLER_3_58 VGND VGND VPWR VPWR sky130_fd_sc_hd__fill_2
X_64_ _64_/A VGND VGND VPWR VPWR _64_/X sky130_fd_sc_hd__clkbuf_1
Xlogical_tile_io_mode_io__5.ltile_phy_iopad_0.EMBEDDED_IO_HD_0_.INV_SOC_DIR _58_/A
+ VGND VGND VPWR VPWR logical_tile_io_mode_io__5.ltile_phy_iopad_0.EMBEDDED_IO_HD_0_.INV_SOC_DIR/Y
+ sky130_fd_sc_hd__inv_1
Xmux_top_ipin_4.sky130_fd_sc_hd__buf_4_0_ mux_top_ipin_4.mux_l4_in_0_/X VGND VGND
+ VPWR VPWR output73/A sky130_fd_sc_hd__clkbuf_1
X_47_ _47_/A VGND VGND VPWR VPWR _47_/X sky130_fd_sc_hd__clkbuf_1
XFILLER_18_99 VGND VGND VPWR VPWR sky130_fd_sc_hd__decap_12
XFILLER_18_77 VGND VGND VPWR VPWR sky130_fd_sc_hd__decap_8
XFILLER_18_11 VGND VGND VPWR VPWR sky130_fd_sc_hd__fill_1
XANTENNA_input60_A top_width_0_height_0__pin_4_ VGND VGND VPWR VPWR sky130_fd_sc_hd__diode_2
XFILLER_6_58 VGND VGND VPWR VPWR sky130_fd_sc_hd__decap_4
XFILLER_6_69 VGND VGND VPWR VPWR sky130_fd_sc_hd__decap_12
XFILLER_19_163 VGND VGND VPWR VPWR sky130_fd_sc_hd__decap_8
XANTENNA_input23_A chanx_left_in[8] VGND VGND VPWR VPWR sky130_fd_sc_hd__diode_2
XFILLER_16_144 VGND VGND VPWR VPWR sky130_fd_sc_hd__decap_12
XFILLER_15_67 VGND VGND VPWR VPWR sky130_fd_sc_hd__fill_1
XFILLER_15_34 VGND VGND VPWR VPWR sky130_fd_sc_hd__decap_8
Xoutput66 output66/A VGND VGND VPWR VPWR bottom_grid_pin_10_ sky130_fd_sc_hd__clkbuf_2
Xoutput88 _85_/X VGND VGND VPWR VPWR chanx_left_out[3] sky130_fd_sc_hd__clkbuf_2
Xoutput77 _24_/X VGND VGND VPWR VPWR chanx_left_out[11] sky130_fd_sc_hd__clkbuf_2
Xoutput99 _46_/X VGND VGND VPWR VPWR chanx_right_out[13] sky130_fd_sc_hd__clkbuf_2
XFILLER_13_136 VGND VGND VPWR VPWR sky130_fd_sc_hd__decap_4
XFILLER_9_118 VGND VGND VPWR VPWR sky130_fd_sc_hd__fill_1
X_80_ _80_/A VGND VGND VPWR VPWR _80_/X sky130_fd_sc_hd__buf_1
XANTENNA_mux_top_ipin_7.mux_l2_in_2__A1 _24_/A VGND VGND VPWR VPWR sky130_fd_sc_hd__diode_2
XFILLER_3_48 VGND VGND VPWR VPWR sky130_fd_sc_hd__fill_1
XFILLER_5_143 VGND VGND VPWR VPWR sky130_fd_sc_hd__fill_1
X_63_ _63_/A VGND VGND VPWR VPWR _63_/X sky130_fd_sc_hd__clkbuf_1
Xprog_clk_0_FTB00 prog_clk_0_N_in VGND VGND VPWR VPWR prog_clk_0_FTB00/X sky130_fd_sc_hd__buf_8
XANTENNA_mux_top_ipin_4.mux_l1_in_1__A0 _84_/A VGND VGND VPWR VPWR sky130_fd_sc_hd__diode_2
XFILLER_9_47 VGND VGND VPWR VPWR sky130_fd_sc_hd__fill_1
XFILLER_9_25 VGND VGND VPWR VPWR sky130_fd_sc_hd__fill_1
X_46_ _46_/A VGND VGND VPWR VPWR _46_/X sky130_fd_sc_hd__clkbuf_1
XFILLER_18_34 VGND VGND VPWR VPWR sky130_fd_sc_hd__decap_3
XANTENNA_input53_A gfpga_pad_EMBEDDED_IO_HD_SOC_IN[8] VGND VGND VPWR VPWR sky130_fd_sc_hd__diode_2
X_29_ _29_/A VGND VGND VPWR VPWR _29_/X sky130_fd_sc_hd__clkbuf_1
XFILLER_1_92 VGND VGND VPWR VPWR sky130_fd_sc_hd__fill_1
XFILLER_6_48 VGND VGND VPWR VPWR sky130_fd_sc_hd__decap_4
XANTENNA_mux_top_ipin_2.mux_l2_in_2__A0 _51_/A VGND VGND VPWR VPWR sky130_fd_sc_hd__diode_2
Xoutput67 output67/A VGND VGND VPWR VPWR bottom_grid_pin_12_ sky130_fd_sc_hd__clkbuf_2
Xoutput89 _86_/X VGND VGND VPWR VPWR chanx_left_out[4] sky130_fd_sc_hd__clkbuf_2
XANTENNA__20__A _20_/A VGND VGND VPWR VPWR sky130_fd_sc_hd__diode_2
Xlogical_tile_io_mode_io__1.ltile_phy_iopad_0.EMBEDDED_IO_HD_sky130_fd_sc_hd__dfxtp_1_mem.sky130_fd_sc_hd__dfxtp_1_0_
+ mem_top_ipin_4.sky130_fd_sc_hd__dfxtp_1_2_/CLK logical_tile_io_mode_io__0.ltile_phy_iopad_0.EMBEDDED_IO_HD_0_.ISOL_EN_GATE/A
+ VGND VGND VPWR VPWR logical_tile_io_mode_io__1.ltile_phy_iopad_0.EMBEDDED_IO_HD_0_.ISOL_EN_GATE/A
+ sky130_fd_sc_hd__dfxtp_1
Xoutput78 _25_/X VGND VGND VPWR VPWR chanx_left_out[12] sky130_fd_sc_hd__clkbuf_2
XFILLER_16_156 VGND VGND VPWR VPWR sky130_fd_sc_hd__decap_12
XANTENNA_input16_A chanx_left_in[1] VGND VGND VPWR VPWR sky130_fd_sc_hd__diode_2
XFILLER_11_3 VGND VGND VPWR VPWR sky130_fd_sc_hd__fill_1
XFILLER_22_115 VGND VGND VPWR VPWR sky130_fd_sc_hd__fill_1
XANTENNA_input8_A chanx_left_in[12] VGND VGND VPWR VPWR sky130_fd_sc_hd__diode_2
XFILLER_13_115 VGND VGND VPWR VPWR sky130_fd_sc_hd__decap_4
Xlogical_tile_io_mode_io__5.ltile_phy_iopad_0.EMBEDDED_IO_HD_0_.ISOL_EN_GATE logical_tile_io_mode_io__5.ltile_phy_iopad_0.EMBEDDED_IO_HD_0_.ISOL_EN_GATE/A
+ input1/X VGND VGND VPWR VPWR _58_/A sky130_fd_sc_hd__or2b_2
Xmux_top_ipin_2.mux_l2_in_3_ _11_/HI _31_/A mux_top_ipin_2.mux_l2_in_3_/S VGND VGND
+ VPWR VPWR mux_top_ipin_2.mux_l2_in_3_/X sky130_fd_sc_hd__mux2_1
XFILLER_3_27 VGND VGND VPWR VPWR sky130_fd_sc_hd__decap_3
X_62_ _62_/A VGND VGND VPWR VPWR _62_/X sky130_fd_sc_hd__clkbuf_1
XANTENNA_mux_top_ipin_4.mux_l1_in_1__A1 _35_/A VGND VGND VPWR VPWR sky130_fd_sc_hd__diode_2
X_45_ _45_/A VGND VGND VPWR VPWR _45_/X sky130_fd_sc_hd__clkbuf_1
Xmux_top_ipin_2.mux_l4_in_0_ mux_top_ipin_2.mux_l3_in_1_/X mux_top_ipin_2.mux_l3_in_0_/X
+ mux_top_ipin_2.mux_l4_in_0_/S VGND VGND VPWR VPWR mux_top_ipin_2.mux_l4_in_0_/X
+ sky130_fd_sc_hd__mux2_1
XANTENNA_input46_A gfpga_pad_EMBEDDED_IO_HD_SOC_IN[1] VGND VGND VPWR VPWR sky130_fd_sc_hd__diode_2
XANTENNA__23__A _23_/A VGND VGND VPWR VPWR sky130_fd_sc_hd__diode_2
X_28_ _28_/A VGND VGND VPWR VPWR _28_/X sky130_fd_sc_hd__clkbuf_1
XFILLER_20_36 VGND VGND VPWR VPWR sky130_fd_sc_hd__decap_12
Xmux_top_ipin_7.mux_l2_in_3_ _16_/HI _30_/A mux_top_ipin_7.mux_l2_in_3_/S VGND VGND
+ VPWR VPWR mux_top_ipin_7.mux_l2_in_3_/X sky130_fd_sc_hd__mux2_1
XANTENNA__18__A _18_/A VGND VGND VPWR VPWR sky130_fd_sc_hd__diode_2
Xmux_top_ipin_2.mux_l3_in_1_ mux_top_ipin_2.mux_l2_in_3_/X mux_top_ipin_2.mux_l2_in_2_/X
+ mux_top_ipin_2.mux_l3_in_1_/S VGND VGND VPWR VPWR mux_top_ipin_2.mux_l3_in_1_/X
+ sky130_fd_sc_hd__mux2_1
XANTENNA_mux_top_ipin_2.mux_l2_in_2__A1 _25_/A VGND VGND VPWR VPWR sky130_fd_sc_hd__diode_2
XFILLER_16_168 VGND VGND VPWR VPWR sky130_fd_sc_hd__decap_3
Xoutput68 output68/A VGND VGND VPWR VPWR bottom_grid_pin_14_ sky130_fd_sc_hd__clkbuf_2
Xoutput79 _26_/X VGND VGND VPWR VPWR chanx_left_out[13] sky130_fd_sc_hd__clkbuf_2
XFILLER_21_160 VGND VGND VPWR VPWR sky130_fd_sc_hd__decap_4
Xmux_top_ipin_2.mux_l2_in_2_ _51_/A _25_/A mux_top_ipin_2.mux_l2_in_3_/S VGND VGND
+ VPWR VPWR mux_top_ipin_2.mux_l2_in_2_/X sky130_fd_sc_hd__mux2_1
XFILLER_13_105 VGND VGND VPWR VPWR sky130_fd_sc_hd__fill_1
XANTENNA__31__A _31_/A VGND VGND VPWR VPWR sky130_fd_sc_hd__diode_2
Xmux_top_ipin_7.mux_l4_in_0_ mux_top_ipin_7.mux_l3_in_1_/X mux_top_ipin_7.mux_l3_in_0_/X
+ mux_top_ipin_7.mux_l4_in_0_/S VGND VGND VPWR VPWR mux_top_ipin_7.mux_l4_in_0_/X
+ sky130_fd_sc_hd__mux2_1
XFILLER_12_48 VGND VGND VPWR VPWR sky130_fd_sc_hd__fill_1
XANTENNA__26__A _26_/A VGND VGND VPWR VPWR sky130_fd_sc_hd__diode_2
X_61_ _61_/A VGND VGND VPWR VPWR _61_/X sky130_fd_sc_hd__clkbuf_1
XFILLER_5_123 VGND VGND VPWR VPWR sky130_fd_sc_hd__fill_2
Xmux_top_ipin_7.mux_l3_in_1_ mux_top_ipin_7.mux_l2_in_3_/X mux_top_ipin_7.mux_l2_in_2_/X
+ mux_top_ipin_7.mux_l3_in_1_/S VGND VGND VPWR VPWR mux_top_ipin_7.mux_l3_in_1_/X
+ sky130_fd_sc_hd__mux2_1
X_44_ _44_/A VGND VGND VPWR VPWR _44_/X sky130_fd_sc_hd__clkbuf_1
XANTENNA_input39_A chanx_right_in[4] VGND VGND VPWR VPWR sky130_fd_sc_hd__diode_2
X_27_ _27_/A VGND VGND VPWR VPWR _27_/X sky130_fd_sc_hd__clkbuf_1
XFILLER_20_48 VGND VGND VPWR VPWR sky130_fd_sc_hd__decap_12
Xmux_top_ipin_7.mux_l2_in_2_ _50_/A _24_/A mux_top_ipin_7.mux_l2_in_3_/S VGND VGND
+ VPWR VPWR mux_top_ipin_7.mux_l2_in_2_/X sky130_fd_sc_hd__mux2_1
Xlogical_tile_io_mode_io__8.ltile_phy_iopad_0.EMBEDDED_IO_HD_sky130_fd_sc_hd__dfxtp_1_mem.sky130_fd_sc_hd__dfxtp_1_0_
+ mem_top_ipin_6.sky130_fd_sc_hd__dfxtp_1_3_/CLK logical_tile_io_mode_io__7.ltile_phy_iopad_0.EMBEDDED_IO_HD_0_.ISOL_EN_GATE/A
+ VGND VGND VPWR VPWR output74/A sky130_fd_sc_hd__dfxtp_1
Xmux_top_ipin_2.mux_l3_in_0_ mux_top_ipin_2.mux_l2_in_1_/X mux_top_ipin_2.mux_l2_in_0_/X
+ mux_top_ipin_2.mux_l3_in_1_/S VGND VGND VPWR VPWR mux_top_ipin_2.mux_l3_in_0_/X
+ sky130_fd_sc_hd__mux2_1
XANTENNA__34__A _34_/A VGND VGND VPWR VPWR sky130_fd_sc_hd__diode_2
XFILLER_6_17 VGND VGND VPWR VPWR sky130_fd_sc_hd__fill_1
XANTENNA_mux_top_ipin_8.mux_l1_in_0__A0 _82_/A VGND VGND VPWR VPWR sky130_fd_sc_hd__diode_2
XPHY_120 VGND VPWR sky130_fd_sc_hd__tapvpwrvgnd_1
Xoutput69 output69/A VGND VGND VPWR VPWR bottom_grid_pin_16_ sky130_fd_sc_hd__clkbuf_2
XANTENNA__29__A _29_/A VGND VGND VPWR VPWR sky130_fd_sc_hd__diode_2
XPHY_0 VGND VGND VPWR VPWR sky130_fd_sc_hd__decap_3
Xmux_top_ipin_2.mux_l2_in_1_ _45_/A mux_top_ipin_2.mux_l1_in_2_/X mux_top_ipin_2.mux_l2_in_3_/S
+ VGND VGND VPWR VPWR mux_top_ipin_2.mux_l2_in_1_/X sky130_fd_sc_hd__mux2_1
XANTENNA_mux_top_ipin_6.mux_l1_in_2__A0 _19_/A VGND VGND VPWR VPWR sky130_fd_sc_hd__diode_2
XANTENNA_input21_A chanx_left_in[6] VGND VGND VPWR VPWR sky130_fd_sc_hd__diode_2
XFILLER_12_161 VGND VGND VPWR VPWR sky130_fd_sc_hd__fill_1
X_60_ _60_/A VGND VGND VPWR VPWR _60_/X sky130_fd_sc_hd__clkbuf_1
XFILLER_5_113 VGND VGND VPWR VPWR sky130_fd_sc_hd__fill_1
XANTENNA__42__A _42_/A VGND VGND VPWR VPWR sky130_fd_sc_hd__diode_2
Xmux_top_ipin_2.mux_l1_in_2_ _19_/A _39_/A mux_top_ipin_2.mux_l1_in_2_/S VGND VGND
+ VPWR VPWR mux_top_ipin_2.mux_l1_in_2_/X sky130_fd_sc_hd__mux2_1
XANTENNA_mux_top_ipin_6.mux_l2_in_1__A0 _43_/A VGND VGND VPWR VPWR sky130_fd_sc_hd__diode_2
Xmux_top_ipin_7.mux_l3_in_0_ mux_top_ipin_7.mux_l2_in_1_/X mux_top_ipin_7.mux_l2_in_0_/X
+ mux_top_ipin_7.mux_l3_in_1_/S VGND VGND VPWR VPWR mux_top_ipin_7.mux_l3_in_0_/X
+ sky130_fd_sc_hd__mux2_1
XANTENNA__37__A _37_/A VGND VGND VPWR VPWR sky130_fd_sc_hd__diode_2
Xmux_top_ipin_7.sky130_fd_sc_hd__buf_4_0_ mux_top_ipin_7.mux_l4_in_0_/X VGND VGND
+ VPWR VPWR output68/A sky130_fd_sc_hd__clkbuf_1
X_43_ _43_/A VGND VGND VPWR VPWR _43_/X sky130_fd_sc_hd__clkbuf_1
Xmux_top_ipin_7.mux_l2_in_1_ _44_/A mux_top_ipin_7.mux_l1_in_2_/X mux_top_ipin_7.mux_l2_in_3_/S
+ VGND VGND VPWR VPWR mux_top_ipin_7.mux_l2_in_1_/X sky130_fd_sc_hd__mux2_1
X_26_ _26_/A VGND VGND VPWR VPWR _26_/X sky130_fd_sc_hd__clkbuf_1
XANTENNA__50__A _50_/A VGND VGND VPWR VPWR sky130_fd_sc_hd__diode_2
XANTENNA_input51_A gfpga_pad_EMBEDDED_IO_HD_SOC_IN[6] VGND VGND VPWR VPWR sky130_fd_sc_hd__diode_2
XANTENNA_mux_top_ipin_8.mux_l1_in_0__A1 _33_/A VGND VGND VPWR VPWR sky130_fd_sc_hd__diode_2
X_09_ VGND VGND VPWR VPWR _09_/HI _09_/LO sky130_fd_sc_hd__conb_1
XPHY_110 VGND VPWR sky130_fd_sc_hd__tapvpwrvgnd_1
XANTENNA__45__A _45_/A VGND VGND VPWR VPWR sky130_fd_sc_hd__diode_2
XFILLER_22_129 VGND VGND VPWR VPWR sky130_fd_sc_hd__fill_1
XFILLER_15_181 VGND VGND VPWR VPWR sky130_fd_sc_hd__fill_1
Xmux_top_ipin_7.mux_l1_in_2_ _20_/A _40_/A mux_top_ipin_7.mux_l1_in_2_/S VGND VGND
+ VPWR VPWR mux_top_ipin_7.mux_l1_in_2_/X sky130_fd_sc_hd__mux2_1
XPHY_1 VGND VGND VPWR VPWR sky130_fd_sc_hd__decap_3
XFILLER_21_151 VGND VGND VPWR VPWR sky130_fd_sc_hd__fill_1
Xmux_top_ipin_2.mux_l2_in_0_ mux_top_ipin_2.mux_l1_in_1_/X mux_top_ipin_2.mux_l1_in_0_/X
+ mux_top_ipin_2.mux_l2_in_3_/S VGND VGND VPWR VPWR mux_top_ipin_2.mux_l2_in_0_/X
+ sky130_fd_sc_hd__mux2_1
XANTENNA_mux_top_ipin_6.mux_l1_in_2__A1 _39_/A VGND VGND VPWR VPWR sky130_fd_sc_hd__diode_2
XANTENNA_input14_A chanx_left_in[18] VGND VGND VPWR VPWR sky130_fd_sc_hd__diode_2
XANTENNA_input6_A chanx_left_in[10] VGND VGND VPWR VPWR sky130_fd_sc_hd__diode_2
XFILLER_12_28 VGND VGND VPWR VPWR sky130_fd_sc_hd__fill_1
Xlogical_tile_io_mode_io__0.ltile_phy_iopad_0.EMBEDDED_IO_HD_0_.INV_SOC_DIR _53_/A
+ VGND VGND VPWR VPWR logical_tile_io_mode_io__0.ltile_phy_iopad_0.EMBEDDED_IO_HD_0_.INV_SOC_DIR/Y
+ sky130_fd_sc_hd__inv_1
XFILLER_5_136 VGND VGND VPWR VPWR sky130_fd_sc_hd__fill_1
Xmux_top_ipin_2.mux_l1_in_1_ _84_/A _35_/A mux_top_ipin_2.mux_l1_in_2_/S VGND VGND
+ VPWR VPWR mux_top_ipin_2.mux_l1_in_1_/X sky130_fd_sc_hd__mux2_1
XFILLER_4_84 VGND VGND VPWR VPWR sky130_fd_sc_hd__fill_2
Xmem_top_ipin_1.sky130_fd_sc_hd__dfxtp_1_3_ mem_top_ipin_4.sky130_fd_sc_hd__dfxtp_1_1_/CLK
+ mux_top_ipin_1.mux_l3_in_1_/S VGND VGND VPWR VPWR mux_top_ipin_1.mux_l4_in_0_/S
+ sky130_fd_sc_hd__dfxtp_1
XFILLER_13_71 VGND VGND VPWR VPWR sky130_fd_sc_hd__decap_12
X_42_ _42_/A VGND VGND VPWR VPWR _42_/X sky130_fd_sc_hd__clkbuf_1
XANTENNA_mux_top_ipin_4.mux_l2_in_3__A1 _27_/A VGND VGND VPWR VPWR sky130_fd_sc_hd__diode_2
XANTENNA__48__A _48_/A VGND VGND VPWR VPWR sky130_fd_sc_hd__diode_2
XFILLER_20_28 VGND VGND VPWR VPWR sky130_fd_sc_hd__fill_1
Xmux_top_ipin_7.mux_l2_in_0_ mux_top_ipin_7.mux_l1_in_1_/X mux_top_ipin_7.mux_l1_in_0_/X
+ mux_top_ipin_7.mux_l2_in_3_/S VGND VGND VPWR VPWR mux_top_ipin_7.mux_l2_in_0_/X
+ sky130_fd_sc_hd__mux2_1
X_25_ _25_/A VGND VGND VPWR VPWR _25_/X sky130_fd_sc_hd__clkbuf_1
XANTENNA_input44_A chanx_right_in[9] VGND VGND VPWR VPWR sky130_fd_sc_hd__diode_2
XFILLER_19_70 VGND VGND VPWR VPWR sky130_fd_sc_hd__decap_12
XANTENNA_mux_top_ipin_1.mux_l1_in_2__A0 _18_/A VGND VGND VPWR VPWR sky130_fd_sc_hd__diode_2
XPHY_100 VGND VPWR sky130_fd_sc_hd__tapvpwrvgnd_1
XFILLER_22_108 VGND VGND VPWR VPWR sky130_fd_sc_hd__fill_2
XANTENNA_output150_A _79_/A VGND VGND VPWR VPWR sky130_fd_sc_hd__diode_2
XPHY_111 VGND VPWR sky130_fd_sc_hd__tapvpwrvgnd_1
Xmux_top_ipin_7.mux_l1_in_1_ _85_/A _36_/A mux_top_ipin_7.mux_l1_in_2_/S VGND VGND
+ VPWR VPWR mux_top_ipin_7.mux_l1_in_1_/X sky130_fd_sc_hd__mux2_1
XPHY_2 VGND VGND VPWR VPWR sky130_fd_sc_hd__decap_3
XFILLER_21_141 VGND VGND VPWR VPWR sky130_fd_sc_hd__decap_3
Xlogical_tile_io_mode_io__3.ltile_phy_iopad_0.EMBEDDED_IO_HD_0_.ISOL_EN_GATE logical_tile_io_mode_io__3.ltile_phy_iopad_0.EMBEDDED_IO_HD_0_.ISOL_EN_GATE/A
+ input1/X VGND VGND VPWR VPWR _56_/A sky130_fd_sc_hd__or2b_2
XFILLER_12_185 VGND VGND VPWR VPWR sky130_fd_sc_hd__fill_1
XFILLER_12_130 VGND VGND VPWR VPWR sky130_fd_sc_hd__fill_1
Xmem_top_ipin_4.sky130_fd_sc_hd__dfxtp_1_3_ mem_top_ipin_6.sky130_fd_sc_hd__dfxtp_1_3_/CLK
+ mux_top_ipin_4.mux_l3_in_1_/S VGND VGND VPWR VPWR mux_top_ipin_4.mux_l4_in_0_/S
+ sky130_fd_sc_hd__dfxtp_1
XANTENNA_mux_top_ipin_1.mux_l2_in_1__A0 _44_/A VGND VGND VPWR VPWR sky130_fd_sc_hd__diode_2
Xclkbuf_1_0_0_logical_tile_io_mode_io__0.ltile_phy_iopad_0.EMBEDDED_IO_HD_sky130_fd_sc_hd__dfxtp_1_mem.prog_clk
+ clkbuf_0_logical_tile_io_mode_io__0.ltile_phy_iopad_0.EMBEDDED_IO_HD_sky130_fd_sc_hd__dfxtp_1_mem.prog_clk/X
+ VGND VGND VPWR VPWR clkbuf_2_1_0_logical_tile_io_mode_io__0.ltile_phy_iopad_0.EMBEDDED_IO_HD_sky130_fd_sc_hd__dfxtp_1_mem.prog_clk/A
+ sky130_fd_sc_hd__clkbuf_1
XFILLER_5_115 VGND VGND VPWR VPWR sky130_fd_sc_hd__decap_8
XFILLER_4_30 VGND VGND VPWR VPWR sky130_fd_sc_hd__fill_1
Xmux_top_ipin_2.mux_l1_in_0_ _82_/A _33_/A mux_top_ipin_2.mux_l1_in_2_/S VGND VGND
+ VPWR VPWR mux_top_ipin_2.mux_l1_in_0_/X sky130_fd_sc_hd__mux2_1
Xmem_top_ipin_1.sky130_fd_sc_hd__dfxtp_1_2_ mem_top_ipin_4.sky130_fd_sc_hd__dfxtp_1_1_/CLK
+ mux_top_ipin_1.mux_l2_in_3_/S VGND VGND VPWR VPWR mux_top_ipin_1.mux_l3_in_1_/S
+ sky130_fd_sc_hd__dfxtp_1
XFILLER_13_83 VGND VGND VPWR VPWR sky130_fd_sc_hd__fill_2
XFILLER_1_151 VGND VGND VPWR VPWR sky130_fd_sc_hd__fill_1
X_41_ _41_/A VGND VGND VPWR VPWR _41_/X sky130_fd_sc_hd__clkbuf_1
XFILLER_18_28 VGND VGND VPWR VPWR sky130_fd_sc_hd__fill_1
XANTENNA_mux_top_ipin_3.mux_l1_in_0__A1 _34_/A VGND VGND VPWR VPWR sky130_fd_sc_hd__diode_2
X_24_ _24_/A VGND VGND VPWR VPWR _24_/X sky130_fd_sc_hd__clkbuf_1
XFILLER_19_82 VGND VGND VPWR VPWR sky130_fd_sc_hd__decap_12
XANTENNA_input37_A chanx_right_in[2] VGND VGND VPWR VPWR sky130_fd_sc_hd__diode_2
Xmem_top_ipin_7.sky130_fd_sc_hd__dfxtp_1_3_ mem_top_ipin_8.sky130_fd_sc_hd__dfxtp_1_3_/CLK
+ mux_top_ipin_7.mux_l3_in_1_/S VGND VGND VPWR VPWR mux_top_ipin_7.mux_l4_in_0_/S
+ sky130_fd_sc_hd__dfxtp_1
XANTENNA_mux_top_ipin_1.mux_l1_in_2__A1 _38_/A VGND VGND VPWR VPWR sky130_fd_sc_hd__diode_2
Xmux_top_ipin_0.sky130_fd_sc_hd__buf_4_0_ mux_top_ipin_0.mux_l4_in_0_/X VGND VGND
+ VPWR VPWR output65/A sky130_fd_sc_hd__clkbuf_1
XFILLER_21_61 VGND VGND VPWR VPWR sky130_fd_sc_hd__decap_12
XPHY_112 VGND VPWR sky130_fd_sc_hd__tapvpwrvgnd_1
XPHY_101 VGND VPWR sky130_fd_sc_hd__tapvpwrvgnd_1
XFILLER_16_139 VGND VGND VPWR VPWR sky130_fd_sc_hd__decap_4
Xmux_top_ipin_7.mux_l1_in_0_ _83_/A _34_/A mux_top_ipin_7.mux_l1_in_2_/S VGND VGND
+ VPWR VPWR mux_top_ipin_7.mux_l1_in_0_/X sky130_fd_sc_hd__mux2_1
XANTENNA_mux_top_ipin_8.mux_l2_in_2__A0 _51_/A VGND VGND VPWR VPWR sky130_fd_sc_hd__diode_2
XPHY_3 VGND VGND VPWR VPWR sky130_fd_sc_hd__decap_3
XFILLER_21_164 VGND VGND VPWR VPWR sky130_fd_sc_hd__fill_1
XFILLER_12_142 VGND VGND VPWR VPWR sky130_fd_sc_hd__fill_1
Xmem_top_ipin_4.sky130_fd_sc_hd__dfxtp_1_2_ mem_top_ipin_4.sky130_fd_sc_hd__dfxtp_1_2_/CLK
+ mux_top_ipin_4.mux_l2_in_3_/S VGND VGND VPWR VPWR mux_top_ipin_4.mux_l3_in_1_/S
+ sky130_fd_sc_hd__dfxtp_1
Xlogical_tile_io_mode_io__6.ltile_phy_iopad_0.EMBEDDED_IO_HD_0_.IN_PROTECT_GATE input51/X
+ logical_tile_io_mode_io__6.ltile_phy_iopad_0.EMBEDDED_IO_HD_0_.INV_SOC_DIR/Y VGND
+ VGND VPWR VPWR _72_/A sky130_fd_sc_hd__ebufn_2
Xmem_top_ipin_1.sky130_fd_sc_hd__dfxtp_1_1_ mem_top_ipin_4.sky130_fd_sc_hd__dfxtp_1_1_/CLK
+ mux_top_ipin_1.mux_l1_in_2_/S VGND VGND VPWR VPWR mux_top_ipin_1.mux_l2_in_3_/S
+ sky130_fd_sc_hd__dfxtp_1
XFILLER_4_64 VGND VGND VPWR VPWR sky130_fd_sc_hd__decap_12
X_40_ _40_/A VGND VGND VPWR VPWR _40_/X sky130_fd_sc_hd__clkbuf_1
XFILLER_1_43 VGND VGND VPWR VPWR sky130_fd_sc_hd__decap_12
X_23_ _23_/A VGND VGND VPWR VPWR _23_/X sky130_fd_sc_hd__clkbuf_1
XANTENNA__75__A _75_/A VGND VGND VPWR VPWR sky130_fd_sc_hd__diode_2
XFILLER_19_115 VGND VGND VPWR VPWR sky130_fd_sc_hd__decap_12
XFILLER_19_94 VGND VGND VPWR VPWR sky130_fd_sc_hd__decap_12
Xmem_top_ipin_7.sky130_fd_sc_hd__dfxtp_1_2_ mem_top_ipin_8.sky130_fd_sc_hd__dfxtp_1_3_/CLK
+ mux_top_ipin_7.mux_l2_in_3_/S VGND VGND VPWR VPWR mux_top_ipin_7.mux_l3_in_1_/S
+ sky130_fd_sc_hd__dfxtp_1
XPHY_113 VGND VPWR sky130_fd_sc_hd__tapvpwrvgnd_1
XFILLER_21_73 VGND VGND VPWR VPWR sky130_fd_sc_hd__decap_12
XFILLER_21_40 VGND VGND VPWR VPWR sky130_fd_sc_hd__decap_12
XPHY_102 VGND VPWR sky130_fd_sc_hd__tapvpwrvgnd_1
XFILLER_15_151 VGND VGND VPWR VPWR sky130_fd_sc_hd__decap_12
XANTENNA_mux_top_ipin_8.mux_l2_in_2__A1 _25_/A VGND VGND VPWR VPWR sky130_fd_sc_hd__diode_2
Xlogical_tile_io_mode_io__3.ltile_phy_iopad_0.EMBEDDED_IO_HD_0_.IN_PROTECT_GATE input48/X
+ logical_tile_io_mode_io__3.ltile_phy_iopad_0.EMBEDDED_IO_HD_0_.INV_SOC_DIR/Y VGND
+ VGND VPWR VPWR _78_/A sky130_fd_sc_hd__ebufn_4
XPHY_4 VGND VGND VPWR VPWR sky130_fd_sc_hd__decap_3
XFILLER_7_42 VGND VGND VPWR VPWR sky130_fd_sc_hd__decap_3
XFILLER_7_86 VGND VGND VPWR VPWR sky130_fd_sc_hd__fill_2