* NGSPICE file created from cbx_1__1_.ext - technology: sky130A

* Black-box entry subcircuit for sky130_fd_sc_hd__dfxtp_1 abstract view
.subckt sky130_fd_sc_hd__dfxtp_1 CLK D VGND VNB VPB VPWR Q
.ends

* Black-box entry subcircuit for sky130_fd_sc_hd__fill_1 abstract view
.subckt sky130_fd_sc_hd__fill_1 VGND VNB VPB VPWR
.ends

* Black-box entry subcircuit for sky130_fd_sc_hd__mux2_1 abstract view
.subckt sky130_fd_sc_hd__mux2_1 A0 A1 S VGND VNB VPB VPWR X
.ends

* Black-box entry subcircuit for sky130_fd_sc_hd__clkbuf_1 abstract view
.subckt sky130_fd_sc_hd__clkbuf_1 A VGND VNB VPB VPWR X
.ends

* Black-box entry subcircuit for sky130_fd_sc_hd__diode_2 abstract view
.subckt sky130_fd_sc_hd__diode_2 DIODE VGND VNB VPB VPWR
.ends

* Black-box entry subcircuit for sky130_fd_sc_hd__decap_3 abstract view
.subckt sky130_fd_sc_hd__decap_3 VGND VNB VPB VPWR
.ends

* Black-box entry subcircuit for sky130_ef_sc_hd__decap_12 abstract view
.subckt sky130_ef_sc_hd__decap_12 VGND VPWR VPB VNB
.ends

* Black-box entry subcircuit for sky130_fd_sc_hd__buf_2 abstract view
.subckt sky130_fd_sc_hd__buf_2 A VGND VNB VPB VPWR X
.ends

* Black-box entry subcircuit for sky130_fd_sc_hd__tapvpwrvgnd_1 abstract view
.subckt sky130_fd_sc_hd__tapvpwrvgnd_1 VGND VPWR
.ends

* Black-box entry subcircuit for sky130_fd_sc_hd__conb_1 abstract view
.subckt sky130_fd_sc_hd__conb_1 VGND VNB VPB VPWR HI LO
.ends

* Black-box entry subcircuit for sky130_fd_sc_hd__decap_4 abstract view
.subckt sky130_fd_sc_hd__decap_4 VGND VNB VPB VPWR
.ends

* Black-box entry subcircuit for sky130_fd_sc_hd__decap_8 abstract view
.subckt sky130_fd_sc_hd__decap_8 VGND VNB VPB VPWR
.ends

* Black-box entry subcircuit for sky130_fd_sc_hd__buf_8 abstract view
.subckt sky130_fd_sc_hd__buf_8 A VGND VNB VPB VPWR X
.ends

* Black-box entry subcircuit for sky130_fd_sc_hd__fill_2 abstract view
.subckt sky130_fd_sc_hd__fill_2 VGND VNB VPB VPWR
.ends

* Black-box entry subcircuit for sky130_fd_sc_hd__clkbuf_2 abstract view
.subckt sky130_fd_sc_hd__clkbuf_2 A VGND VNB VPB VPWR X
.ends

* Black-box entry subcircuit for sky130_fd_sc_hd__dlymetal6s2s_1 abstract view
.subckt sky130_fd_sc_hd__dlymetal6s2s_1 A VGND VNB VPB VPWR X
.ends

* Black-box entry subcircuit for sky130_fd_sc_hd__decap_6 abstract view
.subckt sky130_fd_sc_hd__decap_6 VGND VNB VPB VPWR
.ends

* Black-box entry subcircuit for sky130_fd_sc_hd__dfxtp_2 abstract view
.subckt sky130_fd_sc_hd__dfxtp_2 CLK D VGND VNB VPB VPWR Q
.ends

* Black-box entry subcircuit for sky130_fd_sc_hd__buf_4 abstract view
.subckt sky130_fd_sc_hd__buf_4 A VGND VNB VPB VPWR X
.ends

.subckt cbx_1__1_ REGIN_FEEDTHROUGH REGOUT_FEEDTHROUGH SC_IN_BOT SC_IN_TOP SC_OUT_BOT
+ SC_OUT_TOP VGND VPWR bottom_grid_pin_0_ bottom_grid_pin_10_ bottom_grid_pin_11_
+ bottom_grid_pin_12_ bottom_grid_pin_13_ bottom_grid_pin_14_ bottom_grid_pin_15_
+ bottom_grid_pin_1_ bottom_grid_pin_2_ bottom_grid_pin_3_ bottom_grid_pin_4_ bottom_grid_pin_5_
+ bottom_grid_pin_6_ bottom_grid_pin_7_ bottom_grid_pin_8_ bottom_grid_pin_9_ ccff_head
+ ccff_tail chanx_left_in[0] chanx_left_in[10] chanx_left_in[11] chanx_left_in[12]
+ chanx_left_in[13] chanx_left_in[14] chanx_left_in[15] chanx_left_in[16] chanx_left_in[17]
+ chanx_left_in[18] chanx_left_in[19] chanx_left_in[1] chanx_left_in[2] chanx_left_in[3]
+ chanx_left_in[4] chanx_left_in[5] chanx_left_in[6] chanx_left_in[7] chanx_left_in[8]
+ chanx_left_in[9] chanx_left_out[0] chanx_left_out[10] chanx_left_out[11] chanx_left_out[12]
+ chanx_left_out[13] chanx_left_out[14] chanx_left_out[15] chanx_left_out[16] chanx_left_out[17]
+ chanx_left_out[18] chanx_left_out[19] chanx_left_out[1] chanx_left_out[2] chanx_left_out[3]
+ chanx_left_out[4] chanx_left_out[5] chanx_left_out[6] chanx_left_out[7] chanx_left_out[8]
+ chanx_left_out[9] chanx_right_in[0] chanx_right_in[10] chanx_right_in[11] chanx_right_in[12]
+ chanx_right_in[13] chanx_right_in[14] chanx_right_in[15] chanx_right_in[16] chanx_right_in[17]
+ chanx_right_in[18] chanx_right_in[19] chanx_right_in[1] chanx_right_in[2] chanx_right_in[3]
+ chanx_right_in[4] chanx_right_in[5] chanx_right_in[6] chanx_right_in[7] chanx_right_in[8]
+ chanx_right_in[9] chanx_right_out[0] chanx_right_out[10] chanx_right_out[11] chanx_right_out[12]
+ chanx_right_out[13] chanx_right_out[14] chanx_right_out[15] chanx_right_out[16]
+ chanx_right_out[17] chanx_right_out[18] chanx_right_out[19] chanx_right_out[1] chanx_right_out[2]
+ chanx_right_out[3] chanx_right_out[4] chanx_right_out[5] chanx_right_out[6] chanx_right_out[7]
+ chanx_right_out[8] chanx_right_out[9] clk_1_N_out clk_1_S_out clk_1_W_in clk_2_E_out
+ clk_2_W_in clk_2_W_out clk_3_E_out clk_3_W_in clk_3_W_out prog_clk_0_N_in prog_clk_0_W_out
+ prog_clk_1_N_out prog_clk_1_S_out prog_clk_1_W_in prog_clk_2_E_out prog_clk_2_W_in
+ prog_clk_2_W_out prog_clk_3_E_out prog_clk_3_W_in prog_clk_3_W_out
Xmem_top_ipin_8.sky130_fd_sc_hd__dfxtp_1_0_ prog_clk_0_FTB00/X mux_top_ipin_7.mux_l4_in_0_/S
+ VGND VGND VPWR VPWR mux_top_ipin_8.mux_l1_in_2_/S sky130_fd_sc_hd__dfxtp_1
XFILLER_10_136 VGND VGND VPWR VPWR sky130_fd_sc_hd__fill_1
XFILLER_10_114 VGND VGND VPWR VPWR sky130_fd_sc_hd__fill_1
Xmux_top_ipin_13.mux_l3_in_0_ mux_top_ipin_13.mux_l2_in_1_/X mux_top_ipin_13.mux_l2_in_0_/X
+ mux_top_ipin_13.mux_l3_in_1_/S VGND VGND VPWR VPWR mux_top_ipin_13.mux_l3_in_0_/X
+ sky130_fd_sc_hd__mux2_1
X_66_ _66_/A VGND VGND VPWR VPWR _66_/X sky130_fd_sc_hd__clkbuf_1
Xclk_1_N_FTB01 input45/X VGND VGND VPWR VPWR output111/A sky130_fd_sc_hd__clkbuf_1
Xmux_top_ipin_6.mux_l2_in_0_ repeater137/X mux_top_ipin_6.mux_l1_in_0_/X mux_top_ipin_6.mux_l2_in_3_/S
+ VGND VGND VPWR VPWR mux_top_ipin_6.mux_l2_in_0_/X sky130_fd_sc_hd__mux2_1
XANTENNA_mux_top_ipin_10.mux_l2_in_2__A1 _41_/A VGND VGND VPWR VPWR sky130_fd_sc_hd__diode_2
XFILLER_0_46 VGND VGND VPWR VPWR sky130_fd_sc_hd__fill_1
XFILLER_0_35 VGND VGND VPWR VPWR sky130_fd_sc_hd__decap_3
XFILLER_2_110 VGND VPWR VPWR VGND sky130_ef_sc_hd__decap_12
XANTENNA_mux_top_ipin_5.mux_l2_in_2__S mux_top_ipin_5.mux_l2_in_3_/S VGND VGND VPWR
+ VPWR sky130_fd_sc_hd__diode_2
X_49_ _49_/A VGND VGND VPWR VPWR _49_/X sky130_fd_sc_hd__clkbuf_1
Xmux_top_ipin_13.mux_l2_in_1_ _64_/A input38/X mux_top_ipin_13.mux_l2_in_3_/S VGND
+ VGND VPWR VPWR mux_top_ipin_13.mux_l2_in_1_/X sky130_fd_sc_hd__mux2_1
XANTENNA_input18_A chanx_left_in[3] VGND VGND VPWR VPWR sky130_fd_sc_hd__diode_2
Xoutput53 _34_/X VGND VGND VPWR VPWR SC_OUT_TOP sky130_fd_sc_hd__buf_2
Xoutput97 _70_/X VGND VGND VPWR VPWR chanx_right_out[15] sky130_fd_sc_hd__buf_2
Xoutput64 output64/A VGND VGND VPWR VPWR bottom_grid_pin_4_ sky130_fd_sc_hd__buf_2
Xoutput86 _40_/X VGND VGND VPWR VPWR chanx_left_out[5] sky130_fd_sc_hd__buf_2
Xoutput75 _48_/X VGND VGND VPWR VPWR chanx_left_out[13] sky130_fd_sc_hd__buf_2
XANTENNA_mux_top_ipin_0.mux_l1_in_2__A0 _39_/A VGND VGND VPWR VPWR sky130_fd_sc_hd__diode_2
XTAP_112 VGND VPWR sky130_fd_sc_hd__tapvpwrvgnd_1
XTAP_101 VGND VPWR sky130_fd_sc_hd__tapvpwrvgnd_1
Xmux_top_ipin_1.mux_l1_in_0_ repeater130/X repeater139/X mux_top_ipin_1.mux_l1_in_0_/S
+ VGND VGND VPWR VPWR mux_top_ipin_1.mux_l1_in_0_/X sky130_fd_sc_hd__mux2_1
Xmux_top_ipin_14.mux_l2_in_3__151 VGND VGND VPWR VPWR mux_top_ipin_14.mux_l2_in_3_/A0
+ mux_top_ipin_14.mux_l2_in_3__151/LO sky130_fd_sc_hd__conb_1
XFILLER_13_167 VGND VGND VPWR VPWR sky130_fd_sc_hd__fill_1
Xmux_top_ipin_4.mux_l2_in_3__155 VGND VGND VPWR VPWR mux_top_ipin_4.mux_l2_in_3_/A0
+ mux_top_ipin_4.mux_l2_in_3__155/LO sky130_fd_sc_hd__conb_1
XFILLER_12_44 VGND VGND VPWR VPWR sky130_fd_sc_hd__fill_1
XANTENNA_mux_top_ipin_0.mux_l2_in_1__A0 _65_/A VGND VGND VPWR VPWR sky130_fd_sc_hd__diode_2
X_65_ _65_/A VGND VGND VPWR VPWR _65_/X sky130_fd_sc_hd__clkbuf_1
XANTENNA_prog_clk_0_W_FTB01_A prog_clk_0_N_in VGND VGND VPWR VPWR sky130_fd_sc_hd__diode_2
XANTENNA_input48_A prog_clk_1_W_in VGND VGND VPWR VPWR sky130_fd_sc_hd__diode_2
Xprog_clk_2_W_FTB01 input49/X VGND VGND VPWR VPWR output121/A sky130_fd_sc_hd__clkbuf_1
XFILLER_0_69 VGND VGND VPWR VPWR sky130_fd_sc_hd__decap_4
XFILLER_2_122 VGND VGND VPWR VPWR sky130_fd_sc_hd__fill_1
Xmux_top_ipin_11.mux_l2_in_3__148 VGND VGND VPWR VPWR mux_top_ipin_11.mux_l2_in_3_/A0
+ mux_top_ipin_11.mux_l2_in_3__148/LO sky130_fd_sc_hd__conb_1
X_48_ _48_/A VGND VGND VPWR VPWR _48_/X sky130_fd_sc_hd__clkbuf_1
Xmux_top_ipin_13.mux_l2_in_0_ _58_/A mux_top_ipin_13.mux_l1_in_0_/X mux_top_ipin_13.mux_l2_in_3_/S
+ VGND VGND VPWR VPWR mux_top_ipin_13.mux_l2_in_0_/X sky130_fd_sc_hd__mux2_1
Xmux_top_ipin_6.mux_l1_in_0_ repeater133/X repeater125/X mux_top_ipin_6.mux_l1_in_0_/S
+ VGND VGND VPWR VPWR mux_top_ipin_6.mux_l1_in_0_/X sky130_fd_sc_hd__mux2_1
Xmux_top_ipin_9.mux_l2_in_3__144 VGND VGND VPWR VPWR mux_top_ipin_9.mux_l2_in_3_/A0
+ mux_top_ipin_9.mux_l2_in_3__144/LO sky130_fd_sc_hd__conb_1
XANTENNA_mux_top_ipin_14.mux_l2_in_1__A0 _65_/A VGND VGND VPWR VPWR sky130_fd_sc_hd__diode_2
XFILLER_15_66 VGND VGND VPWR VPWR sky130_fd_sc_hd__decap_8
XANTENNA_input30_A chanx_right_in[14] VGND VGND VPWR VPWR sky130_fd_sc_hd__diode_2
Xoutput98 _71_/X VGND VGND VPWR VPWR chanx_right_out[16] sky130_fd_sc_hd__buf_2
Xoutput65 output65/A VGND VGND VPWR VPWR bottom_grid_pin_5_ sky130_fd_sc_hd__buf_2
Xoutput54 output54/A VGND VGND VPWR VPWR bottom_grid_pin_0_ sky130_fd_sc_hd__buf_2
Xoutput87 _41_/X VGND VGND VPWR VPWR chanx_left_out[6] sky130_fd_sc_hd__buf_2
Xoutput76 _49_/X VGND VGND VPWR VPWR chanx_left_out[14] sky130_fd_sc_hd__buf_2
XTAP_113 VGND VPWR sky130_fd_sc_hd__tapvpwrvgnd_1
XTAP_102 VGND VPWR sky130_fd_sc_hd__tapvpwrvgnd_1
XANTENNA_mux_top_ipin_7.mux_l2_in_2__A0 _72_/A VGND VGND VPWR VPWR sky130_fd_sc_hd__diode_2
XFILLER_12_67 VGND VGND VPWR VPWR sky130_fd_sc_hd__fill_1
X_64_ _64_/A VGND VGND VPWR VPWR _64_/X sky130_fd_sc_hd__clkbuf_1
Xmux_top_ipin_4.sky130_fd_sc_hd__buf_4_0_ mux_top_ipin_4.mux_l4_in_0_/X VGND VGND
+ VPWR VPWR output64/A sky130_fd_sc_hd__clkbuf_1
X_47_ _47_/A VGND VGND VPWR VPWR _47_/X sky130_fd_sc_hd__clkbuf_1
XFILLER_9_57 VGND VGND VPWR VPWR sky130_fd_sc_hd__fill_1
XFILLER_18_55 VGND VPWR VPWR VGND sky130_ef_sc_hd__decap_12
XFILLER_20_67 VGND VGND VPWR VPWR sky130_fd_sc_hd__fill_1
Xclk_2_E_FTB01 input46/X VGND VGND VPWR VPWR output113/A sky130_fd_sc_hd__clkbuf_1
XFILLER_19_185 VGND VGND VPWR VPWR sky130_fd_sc_hd__fill_1
Xmux_top_ipin_13.mux_l1_in_0_ input36/X _56_/A mux_top_ipin_13.mux_l1_in_0_/S VGND
+ VGND VPWR VPWR mux_top_ipin_13.mux_l1_in_0_/X sky130_fd_sc_hd__mux2_1
XANTENNA_input23_A chanx_left_in[8] VGND VGND VPWR VPWR sky130_fd_sc_hd__diode_2
Xoutput99 _72_/X VGND VGND VPWR VPWR chanx_right_out[17] sky130_fd_sc_hd__buf_2
Xoutput55 output55/A VGND VGND VPWR VPWR bottom_grid_pin_10_ sky130_fd_sc_hd__buf_2
Xoutput66 output66/A VGND VGND VPWR VPWR bottom_grid_pin_6_ sky130_fd_sc_hd__buf_2
Xoutput88 _42_/X VGND VGND VPWR VPWR chanx_left_out[7] sky130_fd_sc_hd__buf_2
Xoutput77 _50_/X VGND VGND VPWR VPWR chanx_left_out[15] sky130_fd_sc_hd__buf_2
XTAP_114 VGND VPWR sky130_fd_sc_hd__tapvpwrvgnd_1
XTAP_103 VGND VPWR sky130_fd_sc_hd__tapvpwrvgnd_1
XANTENNA_mux_top_ipin_7.mux_l2_in_2__A1 _46_/A VGND VGND VPWR VPWR sky130_fd_sc_hd__diode_2
XANTENNA_clk_1_S_FTB01_A input45/X VGND VGND VPWR VPWR sky130_fd_sc_hd__diode_2
XFILLER_5_7 VGND VGND VPWR VPWR sky130_fd_sc_hd__fill_1
X_63_ _63_/A VGND VGND VPWR VPWR _63_/X sky130_fd_sc_hd__clkbuf_1
Xprog_clk_0_FTB00 prog_clk_0_N_in VGND VGND VPWR VPWR prog_clk_0_FTB00/X sky130_fd_sc_hd__buf_8
XFILLER_0_27 VGND VGND VPWR VPWR sky130_fd_sc_hd__fill_1
XANTENNA_prog_clk_1_N_FTB01_A input48/X VGND VGND VPWR VPWR sky130_fd_sc_hd__diode_2
X_46_ _46_/A VGND VGND VPWR VPWR _46_/X sky130_fd_sc_hd__clkbuf_1
XFILLER_18_67 VGND VPWR VPWR VGND sky130_ef_sc_hd__decap_12
XFILLER_1_70 VGND VPWR VPWR VGND sky130_ef_sc_hd__decap_12
Xmux_top_ipin_11.sky130_fd_sc_hd__buf_4_0_ mux_top_ipin_11.mux_l4_in_0_/X VGND VGND
+ VPWR VPWR output56/A sky130_fd_sc_hd__clkbuf_1
Xoutput56 output56/A VGND VGND VPWR VPWR bottom_grid_pin_11_ sky130_fd_sc_hd__buf_2
Xoutput67 output67/A VGND VGND VPWR VPWR bottom_grid_pin_7_ sky130_fd_sc_hd__buf_2
Xoutput89 _43_/X VGND VGND VPWR VPWR chanx_left_out[8] sky130_fd_sc_hd__buf_2
XANTENNA_mux_top_ipin_2.mux_l2_in_2__A0 _69_/A VGND VGND VPWR VPWR sky130_fd_sc_hd__diode_2
Xoutput78 _51_/X VGND VGND VPWR VPWR chanx_left_out[16] sky130_fd_sc_hd__buf_2
XTAP_115 VGND VPWR sky130_fd_sc_hd__tapvpwrvgnd_1
XTAP_104 VGND VPWR sky130_fd_sc_hd__tapvpwrvgnd_1
XFILLER_16_101 VGND VGND VPWR VPWR sky130_fd_sc_hd__decap_4
XANTENNA_input16_A chanx_left_in[1] VGND VGND VPWR VPWR sky130_fd_sc_hd__diode_2
XANTENNA_input8_A chanx_left_in[12] VGND VGND VPWR VPWR sky130_fd_sc_hd__diode_2
XFILLER_3_38 VGND VPWR VPWR VGND sky130_ef_sc_hd__decap_12
Xmux_top_ipin_2.mux_l2_in_3_ mux_top_ipin_2.mux_l2_in_3_/A0 _49_/A mux_top_ipin_2.mux_l2_in_3_/S
+ VGND VGND VPWR VPWR mux_top_ipin_2.mux_l2_in_3_/X sky130_fd_sc_hd__mux2_1
XFILLER_8_141 VGND VGND VPWR VPWR sky130_fd_sc_hd__fill_1
XFILLER_5_111 VGND VGND VPWR VPWR sky130_fd_sc_hd__fill_1
XFILLER_5_155 VGND VGND VPWR VPWR sky130_fd_sc_hd__fill_1
X_62_ _62_/A VGND VGND VPWR VPWR _62_/X sky130_fd_sc_hd__clkbuf_1
XFILLER_13_90 VGND VGND VPWR VPWR sky130_fd_sc_hd__fill_2
XFILLER_18_79 VGND VGND VPWR VPWR sky130_fd_sc_hd__decap_4
Xmux_top_ipin_2.mux_l4_in_0_ mux_top_ipin_2.mux_l3_in_1_/X mux_top_ipin_2.mux_l3_in_0_/X
+ mux_top_ipin_2.mux_l4_in_0_/S VGND VGND VPWR VPWR mux_top_ipin_2.mux_l4_in_0_/X
+ sky130_fd_sc_hd__mux2_1
X_45_ _45_/A VGND VGND VPWR VPWR _45_/X sky130_fd_sc_hd__clkbuf_1
XANTENNA_input46_A clk_2_W_in VGND VGND VPWR VPWR sky130_fd_sc_hd__diode_2
XFILLER_1_82 VGND VPWR VPWR VGND sky130_ef_sc_hd__decap_12
Xmux_top_ipin_7.mux_l2_in_3_ mux_top_ipin_7.mux_l2_in_3_/A0 _52_/A mux_top_ipin_7.mux_l2_in_3_/S
+ VGND VGND VPWR VPWR mux_top_ipin_7.mux_l2_in_3_/X sky130_fd_sc_hd__mux2_1
Xmux_top_ipin_2.mux_l3_in_1_ mux_top_ipin_2.mux_l2_in_3_/X mux_top_ipin_2.mux_l2_in_2_/X
+ mux_top_ipin_2.mux_l3_in_1_/S VGND VGND VPWR VPWR mux_top_ipin_2.mux_l3_in_1_/X
+ sky130_fd_sc_hd__mux2_1
XFILLER_6_38 VGND VGND VPWR VPWR sky130_fd_sc_hd__fill_1
Xoutput57 output57/A VGND VGND VPWR VPWR bottom_grid_pin_12_ sky130_fd_sc_hd__buf_2
XANTENNA_mux_top_ipin_2.mux_l2_in_2__A1 _41_/A VGND VGND VPWR VPWR sky130_fd_sc_hd__diode_2
XTAP_116 VGND VPWR sky130_fd_sc_hd__tapvpwrvgnd_1
XTAP_105 VGND VPWR sky130_fd_sc_hd__tapvpwrvgnd_1
Xoutput68 output68/A VGND VGND VPWR VPWR bottom_grid_pin_8_ sky130_fd_sc_hd__buf_2
Xoutput79 _52_/X VGND VGND VPWR VPWR chanx_left_out[17] sky130_fd_sc_hd__buf_2
XFILLER_22_105 VGND VGND VPWR VPWR sky130_fd_sc_hd__fill_1
Xmux_top_ipin_2.mux_l2_in_2_ _69_/A _41_/A mux_top_ipin_2.mux_l2_in_3_/S VGND VGND
+ VPWR VPWR mux_top_ipin_2.mux_l2_in_2_/X sky130_fd_sc_hd__mux2_1
Xmux_top_ipin_7.mux_l4_in_0_ mux_top_ipin_7.mux_l3_in_1_/X mux_top_ipin_7.mux_l3_in_0_/X
+ mux_top_ipin_7.mux_l4_in_0_/S VGND VGND VPWR VPWR mux_top_ipin_7.mux_l4_in_0_/X
+ sky130_fd_sc_hd__mux2_1
X_61_ _61_/A VGND VGND VPWR VPWR _61_/X sky130_fd_sc_hd__clkbuf_1
XFILLER_5_101 VGND VGND VPWR VPWR sky130_fd_sc_hd__fill_1
Xmux_top_ipin_7.mux_l3_in_1_ mux_top_ipin_7.mux_l2_in_3_/X mux_top_ipin_7.mux_l2_in_2_/X
+ mux_top_ipin_7.mux_l3_in_1_/S VGND VGND VPWR VPWR mux_top_ipin_7.mux_l3_in_1_/X
+ sky130_fd_sc_hd__mux2_1
X_44_ _44_/A VGND VGND VPWR VPWR _44_/X sky130_fd_sc_hd__clkbuf_1
XANTENNA_input39_A chanx_right_in[4] VGND VGND VPWR VPWR sky130_fd_sc_hd__diode_2
XANTENNA_prog_clk_2_E_FTB01_A input49/X VGND VGND VPWR VPWR sky130_fd_sc_hd__diode_2
XFILLER_1_94 VGND VPWR VPWR VGND sky130_ef_sc_hd__decap_12
Xmux_top_ipin_7.mux_l2_in_2_ _72_/A _46_/A mux_top_ipin_7.mux_l2_in_3_/S VGND VGND
+ VPWR VPWR mux_top_ipin_7.mux_l2_in_2_/X sky130_fd_sc_hd__mux2_1
XANTENNA_mux_top_ipin_9.mux_l2_in_3__A1 _48_/A VGND VGND VPWR VPWR sky130_fd_sc_hd__diode_2
Xmux_top_ipin_2.mux_l3_in_0_ mux_top_ipin_2.mux_l2_in_1_/X mux_top_ipin_2.mux_l2_in_0_/X
+ mux_top_ipin_2.mux_l3_in_1_/S VGND VGND VPWR VPWR mux_top_ipin_2.mux_l3_in_0_/X
+ sky130_fd_sc_hd__mux2_1
Xmux_top_ipin_14.mux_l2_in_3_ mux_top_ipin_14.mux_l2_in_3_/A0 _53_/A mux_top_ipin_14.mux_l2_in_3_/S
+ VGND VGND VPWR VPWR mux_top_ipin_14.mux_l2_in_3_/X sky130_fd_sc_hd__mux2_1
Xoutput58 output58/A VGND VGND VPWR VPWR bottom_grid_pin_13_ sky130_fd_sc_hd__buf_2
Xoutput69 output69/A VGND VGND VPWR VPWR bottom_grid_pin_9_ sky130_fd_sc_hd__buf_2
XTAP_117 VGND VPWR sky130_fd_sc_hd__tapvpwrvgnd_1
XTAP_106 VGND VPWR sky130_fd_sc_hd__tapvpwrvgnd_1
XPHY_0 VGND VGND VPWR VPWR sky130_fd_sc_hd__decap_3
Xrepeater130 _36_/A VGND VGND VPWR VPWR repeater130/X sky130_fd_sc_hd__clkbuf_2
Xmux_top_ipin_2.mux_l2_in_1_ _61_/A repeater129/X mux_top_ipin_2.mux_l2_in_3_/S VGND
+ VGND VPWR VPWR mux_top_ipin_2.mux_l2_in_1_/X sky130_fd_sc_hd__mux2_1
XANTENNA_input21_A chanx_left_in[6] VGND VGND VPWR VPWR sky130_fd_sc_hd__diode_2
Xmux_top_ipin_2.mux_l2_in_3__153 VGND VGND VPWR VPWR mux_top_ipin_2.mux_l2_in_3_/A0
+ mux_top_ipin_2.mux_l2_in_3__153/LO sky130_fd_sc_hd__conb_1
XANTENNA_mux_top_ipin_11.mux_l2_in_2__A0 _70_/A VGND VGND VPWR VPWR sky130_fd_sc_hd__diode_2
Xmux_top_ipin_14.mux_l4_in_0_ mux_top_ipin_14.mux_l3_in_1_/X mux_top_ipin_14.mux_l3_in_0_/X
+ mux_top_ipin_14.mux_l4_in_0_/S VGND VGND VPWR VPWR mux_top_ipin_14.mux_l4_in_0_/X
+ sky130_fd_sc_hd__mux2_1
XANTENNA__42__A _42_/A VGND VGND VPWR VPWR sky130_fd_sc_hd__diode_2
X_60_ _60_/A VGND VGND VPWR VPWR _60_/X sky130_fd_sc_hd__clkbuf_1
XANTENNA_mux_top_ipin_6.mux_l2_in_1__A0 _65_/A VGND VGND VPWR VPWR sky130_fd_sc_hd__diode_2
XFILLER_4_83 VGND VGND VPWR VPWR sky130_fd_sc_hd__fill_1
Xclk_3_W_FTB01 input47/X VGND VGND VPWR VPWR output116/A sky130_fd_sc_hd__clkbuf_1
Xmux_top_ipin_7.mux_l3_in_0_ mux_top_ipin_7.mux_l2_in_1_/X mux_top_ipin_7.mux_l2_in_0_/X
+ mux_top_ipin_7.mux_l3_in_1_/S VGND VGND VPWR VPWR mux_top_ipin_7.mux_l3_in_0_/X
+ sky130_fd_sc_hd__mux2_1
XFILLER_0_19 VGND VGND VPWR VPWR sky130_fd_sc_hd__fill_1
XANTENNA_output52_A _33_/X VGND VGND VPWR VPWR sky130_fd_sc_hd__diode_2
X_43_ _43_/A VGND VGND VPWR VPWR _43_/X sky130_fd_sc_hd__clkbuf_1
Xmux_top_ipin_7.sky130_fd_sc_hd__buf_4_0_ mux_top_ipin_7.mux_l4_in_0_/X VGND VGND
+ VPWR VPWR output67/A sky130_fd_sc_hd__clkbuf_1
Xmux_top_ipin_14.mux_l3_in_1_ mux_top_ipin_14.mux_l2_in_3_/X mux_top_ipin_14.mux_l2_in_2_/X
+ mux_top_ipin_14.mux_l3_in_1_/S VGND VGND VPWR VPWR mux_top_ipin_14.mux_l3_in_1_/X
+ sky130_fd_sc_hd__mux2_1
Xmux_top_ipin_7.mux_l2_in_3__142 VGND VGND VPWR VPWR mux_top_ipin_7.mux_l2_in_3_/A0
+ mux_top_ipin_7.mux_l2_in_3__142/LO sky130_fd_sc_hd__conb_1
XANTENNA_clk_3_E_FTB01_A input47/X VGND VGND VPWR VPWR sky130_fd_sc_hd__diode_2
XFILLER_20_49 VGND VPWR VPWR VGND sky130_ef_sc_hd__decap_12
Xmux_top_ipin_7.mux_l2_in_1_ _66_/A mux_top_ipin_7.mux_l1_in_2_/X mux_top_ipin_7.mux_l2_in_3_/S
+ VGND VGND VPWR VPWR mux_top_ipin_7.mux_l2_in_1_/X sky130_fd_sc_hd__mux2_1
XANTENNA__50__A _50_/A VGND VGND VPWR VPWR sky130_fd_sc_hd__diode_2
Xmux_top_ipin_14.mux_l2_in_2_ _73_/A _45_/A mux_top_ipin_14.mux_l2_in_3_/S VGND VGND
+ VPWR VPWR mux_top_ipin_14.mux_l2_in_2_/X sky130_fd_sc_hd__mux2_1
Xoutput59 output59/A VGND VGND VPWR VPWR bottom_grid_pin_14_ sky130_fd_sc_hd__buf_2
XANTENNA__45__A _45_/A VGND VGND VPWR VPWR sky130_fd_sc_hd__diode_2
XFILLER_22_129 VGND VGND VPWR VPWR sky130_fd_sc_hd__fill_1
XTAP_118 VGND VPWR sky130_fd_sc_hd__tapvpwrvgnd_1
XTAP_107 VGND VPWR sky130_fd_sc_hd__tapvpwrvgnd_1
Xmux_top_ipin_7.mux_l1_in_2_ _42_/A _62_/A mux_top_ipin_7.mux_l1_in_2_/S VGND VGND
+ VPWR VPWR mux_top_ipin_7.mux_l1_in_2_/X sky130_fd_sc_hd__mux2_1
XPHY_1 VGND VGND VPWR VPWR sky130_fd_sc_hd__decap_3
XANTENNA_mux_top_ipin_4.mux_l1_in_1__S mux_top_ipin_4.mux_l1_in_2_/S VGND VGND VPWR
+ VPWR sky130_fd_sc_hd__diode_2
Xmux_top_ipin_2.mux_l2_in_0_ repeater137/X mux_top_ipin_2.mux_l1_in_0_/X mux_top_ipin_2.mux_l2_in_3_/S
+ VGND VGND VPWR VPWR mux_top_ipin_2.mux_l2_in_0_/X sky130_fd_sc_hd__mux2_1
Xrepeater131 input36/X VGND VGND VPWR VPWR _36_/A sky130_fd_sc_hd__dlymetal6s2s_1
XANTENNA_input14_A chanx_left_in[18] VGND VGND VPWR VPWR sky130_fd_sc_hd__diode_2
XFILLER_16_81 VGND VGND VPWR VPWR sky130_fd_sc_hd__decap_3
XANTENNA_input6_A chanx_left_in[10] VGND VGND VPWR VPWR sky130_fd_sc_hd__diode_2
XANTENNA_mux_top_ipin_11.mux_l2_in_2__A1 _46_/A VGND VGND VPWR VPWR sky130_fd_sc_hd__diode_2
Xmem_top_ipin_1.sky130_fd_sc_hd__dfxtp_1_3_ prog_clk_0_FTB00/X mux_top_ipin_1.mux_l3_in_1_/S
+ VGND VGND VPWR VPWR mux_top_ipin_1.mux_l4_in_0_/S sky130_fd_sc_hd__dfxtp_1
XANTENNA__53__A _53_/A VGND VGND VPWR VPWR sky130_fd_sc_hd__diode_2
X_42_ _42_/A VGND VGND VPWR VPWR _42_/X sky130_fd_sc_hd__clkbuf_1
XANTENNA_mux_top_ipin_4.mux_l2_in_3__A1 _49_/A VGND VGND VPWR VPWR sky130_fd_sc_hd__diode_2
Xmem_top_ipin_11.sky130_fd_sc_hd__dfxtp_1_3_ prog_clk_0_FTB00/X mux_top_ipin_11.mux_l3_in_1_/S
+ VGND VGND VPWR VPWR mux_top_ipin_11.mux_l4_in_0_/S sky130_fd_sc_hd__dfxtp_1
Xmux_top_ipin_14.mux_l3_in_0_ mux_top_ipin_14.mux_l2_in_1_/X mux_top_ipin_14.mux_l2_in_0_/X
+ mux_top_ipin_14.mux_l3_in_1_/S VGND VGND VPWR VPWR mux_top_ipin_14.mux_l3_in_0_/X
+ sky130_fd_sc_hd__mux2_1
XANTENNA__48__A _48_/A VGND VGND VPWR VPWR sky130_fd_sc_hd__diode_2
Xmux_top_ipin_7.mux_l2_in_0_ mux_top_ipin_7.mux_l1_in_1_/X mux_top_ipin_7.mux_l1_in_0_/X
+ mux_top_ipin_7.mux_l2_in_3_/S VGND VGND VPWR VPWR mux_top_ipin_7.mux_l2_in_0_/X
+ sky130_fd_sc_hd__mux2_1
XFILLER_1_63 VGND VGND VPWR VPWR sky130_fd_sc_hd__fill_1
XANTENNA_input44_A chanx_right_in[9] VGND VGND VPWR VPWR sky130_fd_sc_hd__diode_2
XFILLER_16_105 VGND VGND VPWR VPWR sky130_fd_sc_hd__fill_1
XFILLER_15_17 VGND VGND VPWR VPWR sky130_fd_sc_hd__fill_1
Xmux_top_ipin_14.mux_l2_in_1_ _65_/A input37/X mux_top_ipin_14.mux_l2_in_3_/S VGND
+ VGND VPWR VPWR mux_top_ipin_14.mux_l2_in_1_/X sky130_fd_sc_hd__mux2_1
Xmux_top_ipin_14.sky130_fd_sc_hd__buf_4_0_ mux_top_ipin_14.mux_l4_in_0_/X VGND VGND
+ VPWR VPWR output59/A sky130_fd_sc_hd__clkbuf_1
XTAP_119 VGND VPWR sky130_fd_sc_hd__tapvpwrvgnd_1
XTAP_108 VGND VPWR sky130_fd_sc_hd__tapvpwrvgnd_1
Xmux_top_ipin_7.mux_l1_in_1_ _38_/A input18/X mux_top_ipin_7.mux_l1_in_2_/S VGND VGND
+ VPWR VPWR mux_top_ipin_7.mux_l1_in_1_/X sky130_fd_sc_hd__mux2_1
XANTENNA__61__A _61_/A VGND VGND VPWR VPWR sky130_fd_sc_hd__diode_2
XPHY_2 VGND VGND VPWR VPWR sky130_fd_sc_hd__decap_3
XFILLER_21_185 VGND VGND VPWR VPWR sky130_fd_sc_hd__fill_1
Xrepeater132 repeater133/X VGND VGND VPWR VPWR _35_/A sky130_fd_sc_hd__clkbuf_1
Xmem_top_ipin_4.sky130_fd_sc_hd__dfxtp_1_3_ prog_clk_0_FTB00/X mux_top_ipin_4.mux_l3_in_1_/S
+ VGND VGND VPWR VPWR mux_top_ipin_4.mux_l4_in_0_/S sky130_fd_sc_hd__dfxtp_1
Xmem_top_ipin_14.sky130_fd_sc_hd__dfxtp_1_3_ prog_clk_0_FTB00/X mux_top_ipin_14.mux_l3_in_1_/S
+ VGND VGND VPWR VPWR mux_top_ipin_14.mux_l4_in_0_/S sky130_fd_sc_hd__dfxtp_1
XFILLER_4_41 VGND VGND VPWR VPWR sky130_fd_sc_hd__fill_1
XFILLER_4_85 VGND VGND VPWR VPWR sky130_fd_sc_hd__fill_1
Xmem_top_ipin_1.sky130_fd_sc_hd__dfxtp_1_2_ prog_clk_0_FTB00/X mux_top_ipin_1.mux_l2_in_3_/S
+ VGND VGND VPWR VPWR mux_top_ipin_1.mux_l3_in_1_/S sky130_fd_sc_hd__dfxtp_1
XANTENNA_mux_top_ipin_15.mux_l1_in_2__A0 _44_/A VGND VGND VPWR VPWR sky130_fd_sc_hd__diode_2
Xmux_top_ipin_2.mux_l1_in_0_ repeater133/X repeater125/X mux_top_ipin_2.mux_l1_in_0_/S
+ VGND VGND VPWR VPWR mux_top_ipin_2.mux_l1_in_0_/X sky130_fd_sc_hd__mux2_1
XFILLER_13_94 VGND VGND VPWR VPWR sky130_fd_sc_hd__fill_2
X_41_ _41_/A VGND VGND VPWR VPWR _41_/X sky130_fd_sc_hd__clkbuf_1
Xmem_top_ipin_11.sky130_fd_sc_hd__dfxtp_1_2_ prog_clk_0_FTB00/X mux_top_ipin_11.mux_l2_in_3_/S
+ VGND VGND VPWR VPWR mux_top_ipin_11.mux_l3_in_1_/S sky130_fd_sc_hd__dfxtp_1
XANTENNA_mem_top_ipin_0.sky130_fd_sc_hd__dfxtp_1_1__D mux_top_ipin_0.mux_l1_in_2_/S
+ VGND VGND VPWR VPWR sky130_fd_sc_hd__diode_2
XANTENNA__64__A _64_/A VGND VGND VPWR VPWR sky130_fd_sc_hd__diode_2
XFILLER_1_31 VGND VPWR VPWR VGND sky130_ef_sc_hd__decap_12
XANTENNA_mux_top_ipin_15.mux_l2_in_1__A0 _70_/A VGND VGND VPWR VPWR sky130_fd_sc_hd__diode_2
Xmem_top_ipin_7.sky130_fd_sc_hd__dfxtp_1_3_ prog_clk_0_FTB00/X mux_top_ipin_7.mux_l3_in_1_/S
+ VGND VGND VPWR VPWR mux_top_ipin_7.mux_l4_in_0_/S sky130_fd_sc_hd__dfxtp_1
XANTENNA_input37_A chanx_right_in[2] VGND VGND VPWR VPWR sky130_fd_sc_hd__diode_2
Xmux_top_ipin_14.mux_l2_in_0_ _57_/A mux_top_ipin_14.mux_l1_in_0_/X mux_top_ipin_14.mux_l2_in_3_/S
+ VGND VGND VPWR VPWR mux_top_ipin_14.mux_l2_in_0_/X sky130_fd_sc_hd__mux2_1
Xmux_top_ipin_0.sky130_fd_sc_hd__buf_4_0_ mux_top_ipin_0.mux_l4_in_0_/X VGND VGND
+ VPWR VPWR output54/A sky130_fd_sc_hd__clkbuf_1
XFILLER_21_61 VGND VGND VPWR VPWR sky130_fd_sc_hd__fill_1
XFILLER_21_50 VGND VGND VPWR VPWR sky130_fd_sc_hd__decap_6
XTAP_109 VGND VPWR sky130_fd_sc_hd__tapvpwrvgnd_1
Xmux_top_ipin_7.mux_l1_in_0_ repeater130/X input16/X mux_top_ipin_7.mux_l1_in_2_/S
+ VGND VGND VPWR VPWR mux_top_ipin_7.mux_l1_in_0_/X sky130_fd_sc_hd__mux2_1
XANTENNA_mux_top_ipin_8.mux_l2_in_2__A0 _73_/A VGND VGND VPWR VPWR sky130_fd_sc_hd__diode_2
XPHY_3 VGND VGND VPWR VPWR sky130_fd_sc_hd__decap_3
Xrepeater133 input25/X VGND VGND VPWR VPWR repeater133/X sky130_fd_sc_hd__clkbuf_1
Xmem_top_ipin_4.sky130_fd_sc_hd__dfxtp_1_2_ prog_clk_0_FTB00/X mux_top_ipin_4.mux_l2_in_3_/S
+ VGND VGND VPWR VPWR mux_top_ipin_4.mux_l3_in_1_/S sky130_fd_sc_hd__dfxtp_1
XANTENNA__72__A _72_/A VGND VGND VPWR VPWR sky130_fd_sc_hd__diode_2
XANTENNA_mux_top_ipin_0.mux_l1_in_1__S mux_top_ipin_0.mux_l1_in_2_/S VGND VGND VPWR
+ VPWR sky130_fd_sc_hd__diode_2
Xmem_top_ipin_14.sky130_fd_sc_hd__dfxtp_1_2_ prog_clk_0_FTB00/X mux_top_ipin_14.mux_l2_in_3_/S
+ VGND VGND VPWR VPWR mux_top_ipin_14.mux_l3_in_1_/S sky130_fd_sc_hd__dfxtp_1
Xmem_top_ipin_1.sky130_fd_sc_hd__dfxtp_1_1_ prog_clk_0_FTB00/X mux_top_ipin_1.mux_l1_in_0_/S
+ VGND VGND VPWR VPWR mux_top_ipin_1.mux_l2_in_3_/S sky130_fd_sc_hd__dfxtp_1
XANTENNA_mux_top_ipin_15.mux_l1_in_2__A1 _64_/A VGND VGND VPWR VPWR sky130_fd_sc_hd__diode_2
XFILLER_1_152 VGND VGND VPWR VPWR sky130_fd_sc_hd__fill_1
X_40_ _40_/A VGND VGND VPWR VPWR _40_/X sky130_fd_sc_hd__clkbuf_1
Xmem_top_ipin_11.sky130_fd_sc_hd__dfxtp_1_1_ prog_clk_0_FTB00/X mux_top_ipin_11.mux_l1_in_2_/S
+ VGND VGND VPWR VPWR mux_top_ipin_11.mux_l2_in_3_/S sky130_fd_sc_hd__dfxtp_1
XFILLER_1_43 VGND VGND VPWR VPWR sky130_fd_sc_hd__decap_3
Xmem_top_ipin_7.sky130_fd_sc_hd__dfxtp_1_2_ prog_clk_0_FTB00/X mux_top_ipin_7.mux_l2_in_3_/S
+ VGND VGND VPWR VPWR mux_top_ipin_7.mux_l3_in_1_/S sky130_fd_sc_hd__dfxtp_1
XANTENNA_mux_top_ipin_13.mux_l2_in_3__A1 _52_/A VGND VGND VPWR VPWR sky130_fd_sc_hd__diode_2
XPHY_4 VGND VGND VPWR VPWR sky130_fd_sc_hd__decap_3
Xrepeater134 repeater135/X VGND VGND VPWR VPWR _58_/A sky130_fd_sc_hd__clkbuf_1
Xmem_top_ipin_4.sky130_fd_sc_hd__dfxtp_1_1_ prog_clk_0_FTB00/X mux_top_ipin_4.mux_l1_in_2_/S
+ VGND VGND VPWR VPWR mux_top_ipin_4.mux_l2_in_3_/S sky130_fd_sc_hd__dfxtp_2
Xmux_top_ipin_14.mux_l1_in_0_ input25/X _55_/A mux_top_ipin_14.mux_l1_in_0_/S VGND
+ VGND VPWR VPWR mux_top_ipin_14.mux_l1_in_0_/X sky130_fd_sc_hd__mux2_1
XANTENNA_input12_A chanx_left_in[16] VGND VGND VPWR VPWR sky130_fd_sc_hd__diode_2
Xmem_top_ipin_14.sky130_fd_sc_hd__dfxtp_1_1_ prog_clk_0_FTB00/X mux_top_ipin_14.mux_l1_in_0_/S
+ VGND VGND VPWR VPWR mux_top_ipin_14.mux_l2_in_3_/S sky130_fd_sc_hd__dfxtp_1
Xmem_top_ipin_1.sky130_fd_sc_hd__dfxtp_1_0_ prog_clk_0_FTB00/X mux_top_ipin_0.mux_l4_in_0_/S
+ VGND VGND VPWR VPWR mux_top_ipin_1.mux_l1_in_0_/S sky130_fd_sc_hd__dfxtp_1
XFILLER_13_52 VGND VGND VPWR VPWR sky130_fd_sc_hd__decap_4
XANTENNA_input4_A ccff_head VGND VGND VPWR VPWR sky130_fd_sc_hd__diode_2
XANTENNA_mux_top_ipin_10.mux_l2_in_1__A0 _61_/A VGND VGND VPWR VPWR sky130_fd_sc_hd__diode_2
Xmem_top_ipin_11.sky130_fd_sc_hd__dfxtp_1_0_ prog_clk_0_FTB00/X mux_top_ipin_10.mux_l4_in_0_/S
+ VGND VGND VPWR VPWR mux_top_ipin_11.mux_l1_in_2_/S sky130_fd_sc_hd__dfxtp_1
XFILLER_1_55 VGND VGND VPWR VPWR sky130_fd_sc_hd__fill_1
XANTENNA_mux_top_ipin_3.mux_l2_in_2__A0 _74_/A VGND VGND VPWR VPWR sky130_fd_sc_hd__diode_2
Xmem_top_ipin_7.sky130_fd_sc_hd__dfxtp_1_1_ prog_clk_0_FTB00/X mux_top_ipin_7.mux_l1_in_2_/S
+ VGND VGND VPWR VPWR mux_top_ipin_7.mux_l2_in_3_/S sky130_fd_sc_hd__dfxtp_1
XANTENNA_input42_A chanx_right_in[7] VGND VGND VPWR VPWR sky130_fd_sc_hd__diode_2
XPHY_5 VGND VGND VPWR VPWR sky130_fd_sc_hd__decap_3
XFILLER_7_98 VGND VGND VPWR VPWR sky130_fd_sc_hd__fill_1
XANTENNA_prog_clk_3_W_FTB01_A input50/X VGND VGND VPWR VPWR sky130_fd_sc_hd__diode_2
Xrepeater135 input18/X VGND VGND VPWR VPWR repeater135/X sky130_fd_sc_hd__clkbuf_2
Xrepeater124 repeater125/X VGND VGND VPWR VPWR _55_/A sky130_fd_sc_hd__dlymetal6s2s_1
Xmem_top_ipin_4.sky130_fd_sc_hd__dfxtp_1_0_ prog_clk_0_FTB00/X mux_top_ipin_3.mux_l4_in_0_/S
+ VGND VGND VPWR VPWR mux_top_ipin_4.mux_l1_in_2_/S sky130_fd_sc_hd__dfxtp_1
Xmem_top_ipin_14.sky130_fd_sc_hd__dfxtp_1_0_ prog_clk_0_FTB00/X mux_top_ipin_13.mux_l4_in_0_/S
+ VGND VGND VPWR VPWR mux_top_ipin_14.mux_l1_in_0_/S sky130_fd_sc_hd__dfxtp_1
Xmux_top_ipin_3.mux_l2_in_3_ mux_top_ipin_3.mux_l2_in_3_/A0 _54_/A mux_top_ipin_3.mux_l2_in_3_/S
+ VGND VGND VPWR VPWR mux_top_ipin_3.mux_l2_in_3_/X sky130_fd_sc_hd__mux2_1
Xmux_top_ipin_5.mux_l2_in_3__140 VGND VGND VPWR VPWR mux_top_ipin_5.mux_l2_in_3_/A0
+ mux_top_ipin_5.mux_l2_in_3__140/LO sky130_fd_sc_hd__conb_1
XANTENNA_mux_top_ipin_3.mux_l2_in_2__A1 _48_/A VGND VGND VPWR VPWR sky130_fd_sc_hd__diode_2
Xmem_top_ipin_7.sky130_fd_sc_hd__dfxtp_1_0_ prog_clk_0_FTB00/X mux_top_ipin_6.mux_l4_in_0_/S
+ VGND VGND VPWR VPWR mux_top_ipin_7.mux_l1_in_2_/S sky130_fd_sc_hd__dfxtp_1
Xmux_top_ipin_3.mux_l4_in_0_ mux_top_ipin_3.mux_l3_in_1_/X mux_top_ipin_3.mux_l3_in_0_/X
+ mux_top_ipin_3.mux_l4_in_0_/S VGND VGND VPWR VPWR mux_top_ipin_3.mux_l4_in_0_/X
+ sky130_fd_sc_hd__mux2_1
XANTENNA_input35_A chanx_right_in[19] VGND VGND VPWR VPWR sky130_fd_sc_hd__diode_2
XPHY_6 VGND VGND VPWR VPWR sky130_fd_sc_hd__decap_3
XANTENNA_mux_top_ipin_5.mux_l2_in_0__S mux_top_ipin_5.mux_l2_in_3_/S VGND VGND VPWR
+ VPWR sky130_fd_sc_hd__diode_2
Xmux_top_ipin_8.mux_l2_in_3_ mux_top_ipin_8.mux_l2_in_3_/A0 _53_/A mux_top_ipin_8.mux_l2_in_3_/S
+ VGND VGND VPWR VPWR mux_top_ipin_8.mux_l2_in_3_/X sky130_fd_sc_hd__mux2_1
Xrepeater125 input5/X VGND VGND VPWR VPWR repeater125/X sky130_fd_sc_hd__clkbuf_1
Xrepeater136 repeater137/X VGND VGND VPWR VPWR _57_/A sky130_fd_sc_hd__dlymetal6s2s_1