* NGSPICE file created from cby_2__1_.ext - technology: sky130A

* Black-box entry subcircuit for sky130_fd_sc_hd__decap_4 abstract view
.subckt sky130_fd_sc_hd__decap_4 VGND VNB VPB VPWR
.ends

* Black-box entry subcircuit for sky130_fd_sc_hd__mux2_1 abstract view
.subckt sky130_fd_sc_hd__mux2_1 A0 A1 S VGND VNB VPB VPWR X
.ends

* Black-box entry subcircuit for sky130_fd_sc_hd__buf_2 abstract view
.subckt sky130_fd_sc_hd__buf_2 A VGND VNB VPB VPWR X
.ends

* Black-box entry subcircuit for sky130_fd_sc_hd__fill_1 abstract view
.subckt sky130_fd_sc_hd__fill_1 VGND VNB VPB VPWR
.ends

* Black-box entry subcircuit for sky130_fd_sc_hd__dfxtp_1 abstract view
.subckt sky130_fd_sc_hd__dfxtp_1 CLK D VGND VNB VPB VPWR Q
.ends

* Black-box entry subcircuit for sky130_fd_sc_hd__fill_2 abstract view
.subckt sky130_fd_sc_hd__fill_2 VGND VNB VPB VPWR
.ends

* Black-box entry subcircuit for sky130_fd_sc_hd__diode_2 abstract view
.subckt sky130_fd_sc_hd__diode_2 DIODE VGND VNB VPB VPWR
.ends

* Black-box entry subcircuit for sky130_fd_sc_hd__decap_6 abstract view
.subckt sky130_fd_sc_hd__decap_6 VGND VNB VPB VPWR
.ends

* Black-box entry subcircuit for sky130_fd_sc_hd__tapvpwrvgnd_1 abstract view
.subckt sky130_fd_sc_hd__tapvpwrvgnd_1 VGND VPWR
.ends

* Black-box entry subcircuit for sky130_fd_sc_hd__buf_4 abstract view
.subckt sky130_fd_sc_hd__buf_4 A VGND VNB VPB VPWR X
.ends

* Black-box entry subcircuit for sky130_fd_sc_hd__decap_8 abstract view
.subckt sky130_fd_sc_hd__decap_8 VGND VNB VPB VPWR
.ends

* Black-box entry subcircuit for sky130_fd_sc_hd__decap_3 abstract view
.subckt sky130_fd_sc_hd__decap_3 VGND VNB VPB VPWR
.ends

* Black-box entry subcircuit for sky130_ef_sc_hd__decap_12 abstract view
.subckt sky130_ef_sc_hd__decap_12 VGND VPWR VPB VNB
.ends

* Black-box entry subcircuit for sky130_fd_sc_hd__buf_8 abstract view
.subckt sky130_fd_sc_hd__buf_8 A VGND VNB VPB VPWR X
.ends

* Black-box entry subcircuit for sky130_fd_sc_hd__conb_1 abstract view
.subckt sky130_fd_sc_hd__conb_1 VGND VNB VPB VPWR HI LO
.ends

* Black-box entry subcircuit for sky130_fd_sc_hd__inv_1 abstract view
.subckt sky130_fd_sc_hd__inv_1 A VGND VNB VPB VPWR Y
.ends

* Black-box entry subcircuit for sky130_fd_sc_hd__ebufn_4 abstract view
.subckt sky130_fd_sc_hd__ebufn_4 A TE_B VGND VNB VPB VPWR Z
.ends

* Black-box entry subcircuit for sky130_fd_sc_hd__or2b_4 abstract view
.subckt sky130_fd_sc_hd__or2b_4 A B_N VGND VNB VPB VPWR X
.ends

.subckt cby_2__1_ IO_ISOL_N VGND VPWR ccff_head ccff_tail chany_bottom_in[0] chany_bottom_in[10]
+ chany_bottom_in[11] chany_bottom_in[12] chany_bottom_in[13] chany_bottom_in[14]
+ chany_bottom_in[15] chany_bottom_in[16] chany_bottom_in[17] chany_bottom_in[18]
+ chany_bottom_in[19] chany_bottom_in[1] chany_bottom_in[2] chany_bottom_in[3] chany_bottom_in[4]
+ chany_bottom_in[5] chany_bottom_in[6] chany_bottom_in[7] chany_bottom_in[8] chany_bottom_in[9]
+ chany_bottom_out[0] chany_bottom_out[10] chany_bottom_out[11] chany_bottom_out[12]
+ chany_bottom_out[13] chany_bottom_out[14] chany_bottom_out[15] chany_bottom_out[16]
+ chany_bottom_out[17] chany_bottom_out[18] chany_bottom_out[19] chany_bottom_out[1]
+ chany_bottom_out[2] chany_bottom_out[3] chany_bottom_out[4] chany_bottom_out[5]
+ chany_bottom_out[6] chany_bottom_out[7] chany_bottom_out[8] chany_bottom_out[9]
+ chany_top_in[0] chany_top_in[10] chany_top_in[11] chany_top_in[12] chany_top_in[13]
+ chany_top_in[14] chany_top_in[15] chany_top_in[16] chany_top_in[17] chany_top_in[18]
+ chany_top_in[19] chany_top_in[1] chany_top_in[2] chany_top_in[3] chany_top_in[4]
+ chany_top_in[5] chany_top_in[6] chany_top_in[7] chany_top_in[8] chany_top_in[9]
+ chany_top_out[0] chany_top_out[10] chany_top_out[11] chany_top_out[12] chany_top_out[13]
+ chany_top_out[14] chany_top_out[15] chany_top_out[16] chany_top_out[17] chany_top_out[18]
+ chany_top_out[19] chany_top_out[1] chany_top_out[2] chany_top_out[3] chany_top_out[4]
+ chany_top_out[5] chany_top_out[6] chany_top_out[7] chany_top_out[8] chany_top_out[9]
+ gfpga_pad_EMBEDDED_IO_HD_SOC_DIR gfpga_pad_EMBEDDED_IO_HD_SOC_IN gfpga_pad_EMBEDDED_IO_HD_SOC_OUT
+ left_grid_pin_16_ left_grid_pin_17_ left_grid_pin_18_ left_grid_pin_19_ left_grid_pin_20_
+ left_grid_pin_21_ left_grid_pin_22_ left_grid_pin_23_ left_grid_pin_24_ left_grid_pin_25_
+ left_grid_pin_26_ left_grid_pin_27_ left_grid_pin_28_ left_grid_pin_29_ left_grid_pin_30_
+ left_grid_pin_31_ left_width_0_height_0__pin_0_ left_width_0_height_0__pin_1_lower
+ left_width_0_height_0__pin_1_upper prog_clk_0_N_out prog_clk_0_S_out prog_clk_0_W_in
+ right_grid_pin_0_
XFILLER_13_155 VGND VGND VPWR VPWR sky130_fd_sc_hd__decap_4
XFILLER_3_67 VGND VGND VPWR VPWR sky130_fd_sc_hd__decap_4
Xmux_right_ipin_11.mux_l2_in_0_ mux_right_ipin_11.mux_l1_in_1_/X mux_right_ipin_11.mux_l1_in_0_/X
+ mux_right_ipin_11.mux_l2_in_3_/S VGND VGND VPWR VPWR mux_right_ipin_11.mux_l2_in_0_/X
+ sky130_fd_sc_hd__mux2_1
X_66_ chany_bottom_in[12] VGND VGND VPWR VPWR chany_top_out[12] sky130_fd_sc_hd__buf_2
XFILLER_23_31 VGND VGND VPWR VPWR sky130_fd_sc_hd__fill_1
Xmem_right_ipin_15.sky130_fd_sc_hd__dfxtp_1_1_ prog_clk_0_FTB00/X mux_right_ipin_15.mux_l1_in_2_/S
+ VGND VGND VPWR VPWR mux_right_ipin_15.mux_l2_in_3_/S sky130_fd_sc_hd__dfxtp_1
XFILLER_0_57 VGND VGND VPWR VPWR sky130_fd_sc_hd__fill_1
XFILLER_0_13 VGND VGND VPWR VPWR sky130_fd_sc_hd__fill_2
XFILLER_9_55 VGND VGND VPWR VPWR sky130_fd_sc_hd__fill_1
Xmux_right_ipin_11.mux_l1_in_1_ chany_top_in[2] chany_bottom_in[2] mux_right_ipin_11.mux_l1_in_2_/S
+ VGND VGND VPWR VPWR mux_right_ipin_11.mux_l1_in_1_/X sky130_fd_sc_hd__mux2_1
X_49_ chany_top_in[15] VGND VGND VPWR VPWR chany_bottom_out[15] sky130_fd_sc_hd__buf_2
XANTENNA_mux_right_ipin_11.mux_l1_in_1__A1 chany_bottom_in[2] VGND VGND VPWR VPWR
+ sky130_fd_sc_hd__diode_2
Xmem_right_ipin_12.sky130_fd_sc_hd__dfxtp_1_0_ prog_clk_0_FTB00/X mux_right_ipin_11.mux_l4_in_0_/S
+ VGND VGND VPWR VPWR mux_right_ipin_12.mux_l1_in_2_/S sky130_fd_sc_hd__dfxtp_1
XANTENNA_mux_right_ipin_8.mux_l2_in_2__A1 chany_top_in[13] VGND VGND VPWR VPWR sky130_fd_sc_hd__diode_2
XFILLER_20_65 VGND VGND VPWR VPWR sky130_fd_sc_hd__fill_1
XANTENNA_mem_right_ipin_10.sky130_fd_sc_hd__dfxtp_1_1__CLK prog_clk_0_FTB00/X VGND
+ VGND VPWR VPWR sky130_fd_sc_hd__diode_2
XFILLER_13_3 VGND VGND VPWR VPWR sky130_fd_sc_hd__fill_1
XFILLER_6_67 VGND VGND VPWR VPWR sky130_fd_sc_hd__fill_1
XFILLER_15_76 VGND VGND VPWR VPWR sky130_fd_sc_hd__decap_6
XTAP_123 VGND VPWR sky130_fd_sc_hd__tapvpwrvgnd_1
XTAP_112 VGND VPWR sky130_fd_sc_hd__tapvpwrvgnd_1
XANTENNA_mem_right_ipin_13.sky130_fd_sc_hd__dfxtp_1_2__CLK prog_clk_0_FTB00/X VGND
+ VGND VPWR VPWR sky130_fd_sc_hd__diode_2
XTAP_101 VGND VPWR sky130_fd_sc_hd__tapvpwrvgnd_1
XANTENNA_mem_right_ipin_0.sky130_fd_sc_hd__dfxtp_1_2__CLK prog_clk_0_FTB00/X VGND
+ VGND VPWR VPWR sky130_fd_sc_hd__diode_2
XFILLER_26_31 VGND VGND VPWR VPWR sky130_fd_sc_hd__fill_1
XFILLER_3_57 VGND VGND VPWR VPWR sky130_fd_sc_hd__fill_1
XFILLER_10_137 VGND VGND VPWR VPWR sky130_fd_sc_hd__fill_1
XANTENNA_mem_right_ipin_3.sky130_fd_sc_hd__dfxtp_1_3__CLK prog_clk_0_FTB00/X VGND
+ VGND VPWR VPWR sky130_fd_sc_hd__diode_2
XANTENNA_mux_right_ipin_5.mux_l2_in_0__A0 chany_bottom_in[2] VGND VGND VPWR VPWR sky130_fd_sc_hd__diode_2
X_65_ chany_bottom_in[11] VGND VGND VPWR VPWR chany_top_out[11] sky130_fd_sc_hd__buf_2
Xmux_right_ipin_8.sky130_fd_sc_hd__buf_4_0_ mux_right_ipin_8.mux_l4_in_0_/X VGND VGND
+ VPWR VPWR left_grid_pin_24_ sky130_fd_sc_hd__buf_4
Xmem_right_ipin_15.sky130_fd_sc_hd__dfxtp_1_0_ prog_clk_0_FTB00/X mux_right_ipin_14.mux_l4_in_0_/S
+ VGND VGND VPWR VPWR mux_right_ipin_15.mux_l1_in_2_/S sky130_fd_sc_hd__dfxtp_1
XANTENNA_mux_right_ipin_3.mux_l2_in_2__A0 chany_bottom_in[14] VGND VGND VPWR VPWR
+ sky130_fd_sc_hd__diode_2
XFILLER_9_34 VGND VGND VPWR VPWR sky130_fd_sc_hd__fill_1
Xmux_right_ipin_11.mux_l1_in_0_ chany_top_in[0] chany_bottom_in[0] mux_right_ipin_11.mux_l1_in_2_/S
+ VGND VGND VPWR VPWR mux_right_ipin_11.mux_l1_in_0_/X sky130_fd_sc_hd__mux2_1
X_48_ chany_top_in[14] VGND VGND VPWR VPWR chany_bottom_out[14] sky130_fd_sc_hd__buf_2
XFILLER_15_7 VGND VGND VPWR VPWR sky130_fd_sc_hd__fill_1
XANTENNA_mem_right_ipin_7.sky130_fd_sc_hd__dfxtp_1_0__CLK prog_clk_0_FTB00/X VGND
+ VGND VPWR VPWR sky130_fd_sc_hd__diode_2
XFILLER_6_79 VGND VGND VPWR VPWR sky130_fd_sc_hd__fill_1
XFILLER_15_55 VGND VGND VPWR VPWR sky130_fd_sc_hd__fill_1
XTAP_124 VGND VPWR sky130_fd_sc_hd__tapvpwrvgnd_1
XTAP_113 VGND VPWR sky130_fd_sc_hd__tapvpwrvgnd_1
XTAP_102 VGND VPWR sky130_fd_sc_hd__tapvpwrvgnd_1
XANTENNA_mux_right_ipin_15.mux_l1_in_0__A0 chany_top_in[0] VGND VGND VPWR VPWR sky130_fd_sc_hd__diode_2
XFILLER_12_89 VGND VGND VPWR VPWR sky130_fd_sc_hd__fill_1
XFILLER_12_34 VGND VGND VPWR VPWR sky130_fd_sc_hd__fill_2
XANTENNA_prog_clk_0_S_FTB01_A prog_clk_0_W_in VGND VGND VPWR VPWR sky130_fd_sc_hd__diode_2
X_64_ chany_bottom_in[10] VGND VGND VPWR VPWR chany_top_out[10] sky130_fd_sc_hd__buf_2
Xmux_right_ipin_3.mux_l2_in_3_ _33_/HI chany_top_in[14] mux_right_ipin_3.mux_l2_in_3_/S
+ VGND VGND VPWR VPWR mux_right_ipin_3.mux_l2_in_3_/X sky130_fd_sc_hd__mux2_1
XFILLER_23_77 VGND VGND VPWR VPWR sky130_fd_sc_hd__fill_1
XFILLER_23_11 VGND VGND VPWR VPWR sky130_fd_sc_hd__decap_8
XFILLER_2_101 VGND VGND VPWR VPWR sky130_fd_sc_hd__fill_1
XFILLER_3_3 VGND VGND VPWR VPWR sky130_fd_sc_hd__decap_3
XANTENNA_mux_right_ipin_3.mux_l2_in_2__A1 chany_top_in[8] VGND VGND VPWR VPWR sky130_fd_sc_hd__diode_2
X_47_ chany_top_in[13] VGND VGND VPWR VPWR chany_bottom_out[13] sky130_fd_sc_hd__buf_2
XFILLER_9_57 VGND VGND VPWR VPWR sky130_fd_sc_hd__fill_2
XANTENNA_mux_right_ipin_13.mux_l2_in_1__A0 chany_bottom_in[10] VGND VGND VPWR VPWR
+ sky130_fd_sc_hd__diode_2
XFILLER_18_77 VGND VGND VPWR VPWR sky130_fd_sc_hd__decap_4
XFILLER_20_89 VGND VGND VPWR VPWR sky130_fd_sc_hd__decap_4
XANTENNA_mux_right_ipin_0.mux_l1_in_1__A0 chany_top_in[3] VGND VGND VPWR VPWR sky130_fd_sc_hd__diode_2
Xmux_right_ipin_3.mux_l4_in_0_ mux_right_ipin_3.mux_l3_in_1_/X mux_right_ipin_3.mux_l3_in_0_/X
+ mux_right_ipin_3.mux_l4_in_0_/S VGND VGND VPWR VPWR mux_right_ipin_3.mux_l4_in_0_/X
+ sky130_fd_sc_hd__mux2_1
XTAP_125 VGND VPWR sky130_fd_sc_hd__tapvpwrvgnd_1
XTAP_114 VGND VPWR sky130_fd_sc_hd__tapvpwrvgnd_1
XTAP_103 VGND VPWR sky130_fd_sc_hd__tapvpwrvgnd_1
Xmux_right_ipin_8.mux_l2_in_3_ _21_/HI chany_top_in[19] mux_right_ipin_8.mux_l2_in_3_/S
+ VGND VGND VPWR VPWR mux_right_ipin_8.mux_l2_in_3_/X sky130_fd_sc_hd__mux2_1
XANTENNA_mux_right_ipin_15.mux_l1_in_0__A1 chany_bottom_in[0] VGND VGND VPWR VPWR
+ sky130_fd_sc_hd__diode_2
Xmux_right_ipin_3.mux_l3_in_1_ mux_right_ipin_3.mux_l2_in_3_/X mux_right_ipin_3.mux_l2_in_2_/X
+ mux_right_ipin_3.mux_l3_in_1_/S VGND VGND VPWR VPWR mux_right_ipin_3.mux_l3_in_1_/X
+ sky130_fd_sc_hd__mux2_1
XFILLER_3_15 VGND VGND VPWR VPWR sky130_fd_sc_hd__decap_3
XFILLER_12_68 VGND VPWR VPWR VGND sky130_ef_sc_hd__decap_12
XFILLER_5_110 VGND VGND VPWR VPWR sky130_fd_sc_hd__fill_2
X_63_ chany_bottom_in[9] VGND VGND VPWR VPWR chany_top_out[9] sky130_fd_sc_hd__buf_2
Xmux_right_ipin_3.mux_l2_in_2_ chany_bottom_in[14] chany_top_in[8] mux_right_ipin_3.mux_l2_in_3_/S
+ VGND VGND VPWR VPWR mux_right_ipin_3.mux_l2_in_2_/X sky130_fd_sc_hd__mux2_1
Xprog_clk_0_FTB00 prog_clk_0_W_in VGND VGND VPWR VPWR prog_clk_0_FTB00/X sky130_fd_sc_hd__buf_8
XANTENNA_mux_right_ipin_9.mux_l1_in_0__A0 chany_top_in[0] VGND VGND VPWR VPWR sky130_fd_sc_hd__diode_2
Xmux_right_ipin_8.mux_l4_in_0_ mux_right_ipin_8.mux_l3_in_1_/X mux_right_ipin_8.mux_l3_in_0_/X
+ mux_right_ipin_8.mux_l4_in_0_/S VGND VGND VPWR VPWR mux_right_ipin_8.mux_l4_in_0_/X
+ sky130_fd_sc_hd__mux2_1
XFILLER_0_49 VGND VGND VPWR VPWR sky130_fd_sc_hd__fill_1
X_46_ chany_top_in[12] VGND VGND VPWR VPWR chany_bottom_out[12] sky130_fd_sc_hd__buf_2
XANTENNA_mux_right_ipin_13.mux_l2_in_1__A1 chany_top_in[2] VGND VGND VPWR VPWR sky130_fd_sc_hd__diode_2
XFILLER_18_56 VGND VGND VPWR VPWR sky130_fd_sc_hd__decap_3
XFILLER_18_45 VGND VGND VPWR VPWR sky130_fd_sc_hd__fill_1
XANTENNA_mux_right_ipin_7.mux_l1_in_2__A0 chany_top_in[8] VGND VGND VPWR VPWR sky130_fd_sc_hd__diode_2
X_29_ VGND VGND VPWR VPWR _29_/HI _29_/LO sky130_fd_sc_hd__conb_1
XANTENNA_mem_right_ipin_11.sky130_fd_sc_hd__dfxtp_1_0__CLK prog_clk_0_FTB00/X VGND
+ VGND VPWR VPWR sky130_fd_sc_hd__diode_2
Xmux_right_ipin_8.mux_l3_in_1_ mux_right_ipin_8.mux_l2_in_3_/X mux_right_ipin_8.mux_l2_in_2_/X
+ mux_right_ipin_8.mux_l3_in_1_/S VGND VGND VPWR VPWR mux_right_ipin_8.mux_l3_in_1_/X
+ sky130_fd_sc_hd__mux2_1
Xmux_right_ipin_1.sky130_fd_sc_hd__buf_4_0_ mux_right_ipin_1.mux_l4_in_0_/X VGND VGND
+ VPWR VPWR left_grid_pin_17_ sky130_fd_sc_hd__buf_4
XANTENNA_mux_right_ipin_0.mux_l1_in_1__A1 chany_bottom_in[3] VGND VGND VPWR VPWR sky130_fd_sc_hd__diode_2
XANTENNA_mux_right_ipin_11.mux_l2_in_3__A1 chany_top_in[16] VGND VGND VPWR VPWR sky130_fd_sc_hd__diode_2
XFILLER_20_46 VGND VGND VPWR VPWR sky130_fd_sc_hd__fill_1
XANTENNA_mux_right_ipin_7.mux_l2_in_1__A0 chany_bottom_in[12] VGND VGND VPWR VPWR
+ sky130_fd_sc_hd__diode_2
XANTENNA_mux_right_ipin_10.mux_l1_in_0__A0 chany_top_in[1] VGND VGND VPWR VPWR sky130_fd_sc_hd__diode_2
XANTENNA_mem_right_ipin_14.sky130_fd_sc_hd__dfxtp_1_1__CLK prog_clk_0_FTB00/X VGND
+ VGND VPWR VPWR sky130_fd_sc_hd__diode_2
XFILLER_15_57 VGND VGND VPWR VPWR sky130_fd_sc_hd__fill_1
XANTENNA_mem_right_ipin_1.sky130_fd_sc_hd__dfxtp_1_1__CLK prog_clk_0_FTB00/X VGND
+ VGND VPWR VPWR sky130_fd_sc_hd__diode_2
XTAP_126 VGND VPWR sky130_fd_sc_hd__tapvpwrvgnd_1
XTAP_115 VGND VPWR sky130_fd_sc_hd__tapvpwrvgnd_1
XTAP_104 VGND VPWR sky130_fd_sc_hd__tapvpwrvgnd_1
Xmux_right_ipin_8.mux_l2_in_2_ chany_bottom_in[19] chany_top_in[13] mux_right_ipin_8.mux_l2_in_3_/S
+ VGND VGND VPWR VPWR mux_right_ipin_8.mux_l2_in_2_/X sky130_fd_sc_hd__mux2_1
XFILLER_11_3 VGND VGND VPWR VPWR sky130_fd_sc_hd__decap_3
XFILLER_26_23 VGND VGND VPWR VPWR sky130_fd_sc_hd__fill_1
XFILLER_22_115 VGND VGND VPWR VPWR sky130_fd_sc_hd__fill_1
Xmux_right_ipin_3.mux_l3_in_0_ mux_right_ipin_3.mux_l2_in_1_/X mux_right_ipin_3.mux_l2_in_0_/X
+ mux_right_ipin_3.mux_l3_in_1_/S VGND VGND VPWR VPWR mux_right_ipin_3.mux_l3_in_0_/X
+ sky130_fd_sc_hd__mux2_1
XANTENNA_mem_right_ipin_4.sky130_fd_sc_hd__dfxtp_1_2__CLK prog_clk_0_FTB00/X VGND
+ VGND VPWR VPWR sky130_fd_sc_hd__diode_2
X_62_ chany_bottom_in[8] VGND VGND VPWR VPWR chany_top_out[8] sky130_fd_sc_hd__buf_2
Xmux_right_ipin_3.mux_l2_in_1_ chany_bottom_in[8] mux_right_ipin_3.mux_l1_in_2_/X
+ mux_right_ipin_3.mux_l2_in_3_/S VGND VGND VPWR VPWR mux_right_ipin_3.mux_l2_in_1_/X
+ sky130_fd_sc_hd__mux2_1
XANTENNA_mem_right_ipin_7.sky130_fd_sc_hd__dfxtp_1_3__CLK prog_clk_0_FTB00/X VGND
+ VGND VPWR VPWR sky130_fd_sc_hd__diode_2
XANTENNA_mux_right_ipin_9.mux_l1_in_0__A1 chany_bottom_in[0] VGND VGND VPWR VPWR sky130_fd_sc_hd__diode_2
XFILLER_0_17 VGND VGND VPWR VPWR sky130_fd_sc_hd__fill_1
XANTENNA_logical_tile_io_mode_io__0.ltile_phy_iopad_0.EMBEDDED_IO_HD_0_.IN_PROTECT_GATE_A
+ gfpga_pad_EMBEDDED_IO_HD_SOC_IN VGND VGND VPWR VPWR sky130_fd_sc_hd__diode_2
X_45_ chany_top_in[11] VGND VGND VPWR VPWR chany_bottom_out[11] sky130_fd_sc_hd__buf_2
XANTENNA_mux_right_ipin_7.mux_l1_in_2__A1 chany_bottom_in[8] VGND VGND VPWR VPWR sky130_fd_sc_hd__diode_2
Xmux_right_ipin_12.mux_l2_in_3_ _28_/HI chany_top_in[17] mux_right_ipin_12.mux_l2_in_3_/S
+ VGND VGND VPWR VPWR mux_right_ipin_12.mux_l2_in_3_/X sky130_fd_sc_hd__mux2_1
Xmux_right_ipin_3.mux_l1_in_2_ chany_top_in[4] chany_bottom_in[4] mux_right_ipin_3.mux_l1_in_2_/S
+ VGND VGND VPWR VPWR mux_right_ipin_3.mux_l1_in_2_/X sky130_fd_sc_hd__mux2_1
X_28_ VGND VGND VPWR VPWR _28_/HI _28_/LO sky130_fd_sc_hd__conb_1
Xmux_right_ipin_8.mux_l3_in_0_ mux_right_ipin_8.mux_l2_in_1_/X mux_right_ipin_8.mux_l2_in_0_/X
+ mux_right_ipin_8.mux_l3_in_1_/S VGND VGND VPWR VPWR mux_right_ipin_8.mux_l3_in_0_/X
+ sky130_fd_sc_hd__mux2_1
XFILLER_19_154 VGND VGND VPWR VPWR sky130_fd_sc_hd__decap_4
XANTENNA_mux_right_ipin_10.mux_l1_in_0__A1 chany_bottom_in[1] VGND VGND VPWR VPWR
+ sky130_fd_sc_hd__diode_2
XTAP_127 VGND VPWR sky130_fd_sc_hd__tapvpwrvgnd_1
XTAP_116 VGND VPWR sky130_fd_sc_hd__tapvpwrvgnd_1
XTAP_105 VGND VPWR sky130_fd_sc_hd__tapvpwrvgnd_1
XFILLER_16_135 VGND VGND VPWR VPWR sky130_fd_sc_hd__fill_2
Xmux_right_ipin_8.mux_l2_in_1_ chany_bottom_in[13] mux_right_ipin_8.mux_l1_in_2_/X
+ mux_right_ipin_8.mux_l2_in_3_/S VGND VGND VPWR VPWR mux_right_ipin_8.mux_l2_in_1_/X
+ sky130_fd_sc_hd__mux2_1
Xmux_right_ipin_12.mux_l4_in_0_ mux_right_ipin_12.mux_l3_in_1_/X mux_right_ipin_12.mux_l3_in_0_/X
+ mux_right_ipin_12.mux_l4_in_0_/S VGND VGND VPWR VPWR mux_right_ipin_12.mux_l4_in_0_/X
+ sky130_fd_sc_hd__mux2_1
XANTENNA_mux_right_ipin_5.mux_l2_in_3__A1 chany_top_in[18] VGND VGND VPWR VPWR sky130_fd_sc_hd__diode_2
XANTENNA_mux_right_ipin_4.mux_l1_in_0__A0 chany_top_in[1] VGND VGND VPWR VPWR sky130_fd_sc_hd__diode_2
XANTENNA_mux_right_ipin_15.mux_l2_in_2__A0 chany_bottom_in[16] VGND VGND VPWR VPWR
+ sky130_fd_sc_hd__diode_2
Xmux_right_ipin_8.mux_l1_in_2_ chany_top_in[9] chany_bottom_in[9] mux_right_ipin_8.mux_l1_in_2_/S
+ VGND VGND VPWR VPWR mux_right_ipin_8.mux_l1_in_2_/X sky130_fd_sc_hd__mux2_1
X_61_ chany_bottom_in[7] VGND VGND VPWR VPWR chany_top_out[7] sky130_fd_sc_hd__buf_2
Xmux_right_ipin_12.mux_l3_in_1_ mux_right_ipin_12.mux_l2_in_3_/X mux_right_ipin_12.mux_l2_in_2_/X
+ mux_right_ipin_12.mux_l3_in_1_/S VGND VGND VPWR VPWR mux_right_ipin_12.mux_l3_in_1_/X
+ sky130_fd_sc_hd__mux2_1
Xmux_right_ipin_3.mux_l2_in_0_ mux_right_ipin_3.mux_l1_in_1_/X mux_right_ipin_3.mux_l1_in_0_/X
+ mux_right_ipin_3.mux_l2_in_3_/S VGND VGND VPWR VPWR mux_right_ipin_3.mux_l2_in_0_/X
+ sky130_fd_sc_hd__mux2_1
XFILLER_9_27 VGND VGND VPWR VPWR sky130_fd_sc_hd__fill_1
X_44_ chany_top_in[10] VGND VGND VPWR VPWR chany_bottom_out[10] sky130_fd_sc_hd__buf_2
Xmux_right_ipin_12.mux_l2_in_2_ chany_bottom_in[17] chany_top_in[13] mux_right_ipin_12.mux_l2_in_3_/S
+ VGND VGND VPWR VPWR mux_right_ipin_12.mux_l2_in_2_/X sky130_fd_sc_hd__mux2_1
XFILLER_18_14 VGND VGND VPWR VPWR sky130_fd_sc_hd__fill_1
XFILLER_1_3 VGND VGND VPWR VPWR sky130_fd_sc_hd__decap_4
Xmux_right_ipin_3.mux_l1_in_1_ chany_top_in[2] chany_bottom_in[2] mux_right_ipin_3.mux_l1_in_2_/S
+ VGND VGND VPWR VPWR mux_right_ipin_3.mux_l1_in_1_/X sky130_fd_sc_hd__mux2_1
XANTENNA_mux_right_ipin_2.mux_l2_in_1__A0 chany_bottom_in[7] VGND VGND VPWR VPWR sky130_fd_sc_hd__diode_2
X_27_ VGND VGND VPWR VPWR _27_/HI _27_/LO sky130_fd_sc_hd__conb_1
XANTENNA__34__A chany_top_in[0] VGND VGND VPWR VPWR sky130_fd_sc_hd__diode_2
XFILLER_25_158 VGND VGND VPWR VPWR sky130_fd_sc_hd__fill_1
XFILLER_16_158 VGND VGND VPWR VPWR sky130_fd_sc_hd__fill_1
Xmux_right_ipin_8.mux_l2_in_0_ mux_right_ipin_8.mux_l1_in_1_/X mux_right_ipin_8.mux_l1_in_0_/X
+ mux_right_ipin_8.mux_l2_in_3_/S VGND VGND VPWR VPWR mux_right_ipin_8.mux_l2_in_0_/X
+ sky130_fd_sc_hd__mux2_1
XTAP_128 VGND VPWR sky130_fd_sc_hd__tapvpwrvgnd_1
XTAP_117 VGND VPWR sky130_fd_sc_hd__tapvpwrvgnd_1
XFILLER_22_106 VGND VGND VPWR VPWR sky130_fd_sc_hd__decap_3
XTAP_106 VGND VPWR sky130_fd_sc_hd__tapvpwrvgnd_1
XPHY_0 VGND VGND VPWR VPWR sky130_fd_sc_hd__decap_3
XANTENNA_mux_right_ipin_4.mux_l1_in_0__A1 chany_bottom_in[1] VGND VGND VPWR VPWR sky130_fd_sc_hd__diode_2
XANTENNA_mux_right_ipin_15.mux_l2_in_2__A1 chany_top_in[10] VGND VGND VPWR VPWR sky130_fd_sc_hd__diode_2
Xmux_right_ipin_8.mux_l1_in_1_ chany_top_in[3] chany_bottom_in[3] mux_right_ipin_8.mux_l1_in_2_/S
+ VGND VGND VPWR VPWR mux_right_ipin_8.mux_l1_in_1_/X sky130_fd_sc_hd__mux2_1
X_60_ chany_bottom_in[6] VGND VGND VPWR VPWR chany_top_out[6] sky130_fd_sc_hd__buf_2
Xmux_right_ipin_12.mux_l3_in_0_ mux_right_ipin_12.mux_l2_in_1_/X mux_right_ipin_12.mux_l2_in_0_/X
+ mux_right_ipin_12.mux_l3_in_1_/S VGND VGND VPWR VPWR mux_right_ipin_12.mux_l3_in_0_/X
+ sky130_fd_sc_hd__mux2_1
XANTENNA__42__A chany_top_in[8] VGND VGND VPWR VPWR sky130_fd_sc_hd__diode_2
XFILLER_5_113 VGND VGND VPWR VPWR sky130_fd_sc_hd__decap_3
XANTENNA_mem_right_ipin_11.sky130_fd_sc_hd__dfxtp_1_3__CLK prog_clk_0_FTB00/X VGND
+ VGND VPWR VPWR sky130_fd_sc_hd__diode_2
XANTENNA_mux_right_ipin_12.mux_l1_in_1__A0 chany_top_in[3] VGND VGND VPWR VPWR sky130_fd_sc_hd__diode_2
XANTENNA__37__A chany_top_in[3] VGND VGND VPWR VPWR sky130_fd_sc_hd__diode_2
XANTENNA_mux_right_ipin_9.mux_l2_in_2__A0 chany_bottom_in[14] VGND VGND VPWR VPWR
+ sky130_fd_sc_hd__diode_2
X_43_ chany_top_in[9] VGND VGND VPWR VPWR chany_bottom_out[9] sky130_fd_sc_hd__buf_2
Xmux_right_ipin_12.mux_l2_in_1_ chany_bottom_in[13] mux_right_ipin_12.mux_l1_in_2_/X
+ mux_right_ipin_12.mux_l2_in_3_/S VGND VGND VPWR VPWR mux_right_ipin_12.mux_l2_in_1_/X
+ sky130_fd_sc_hd__mux2_1
XFILLER_18_48 VGND VGND VPWR VPWR sky130_fd_sc_hd__decap_8
Xmux_right_ipin_3.mux_l1_in_0_ chany_top_in[0] chany_bottom_in[0] mux_right_ipin_3.mux_l1_in_2_/S
+ VGND VGND VPWR VPWR mux_right_ipin_3.mux_l1_in_0_/X sky130_fd_sc_hd__mux2_1
XANTENNA_mux_right_ipin_2.mux_l2_in_1__A1 chany_top_in[3] VGND VGND VPWR VPWR sky130_fd_sc_hd__diode_2
XFILLER_27_3 VGND VPWR VPWR VGND sky130_ef_sc_hd__decap_12
X_26_ VGND VGND VPWR VPWR _26_/HI _26_/LO sky130_fd_sc_hd__conb_1
XANTENNA_mem_right_ipin_15.sky130_fd_sc_hd__dfxtp_1_0__CLK prog_clk_0_FTB00/X VGND
+ VGND VPWR VPWR sky130_fd_sc_hd__diode_2
XANTENNA_mem_right_ipin_2.sky130_fd_sc_hd__dfxtp_1_0__CLK prog_clk_0_FTB00/X VGND
+ VGND VPWR VPWR sky130_fd_sc_hd__diode_2
XANTENNA__50__A chany_top_in[16] VGND VGND VPWR VPWR sky130_fd_sc_hd__diode_2
XANTENNA_mux_right_ipin_0.mux_l2_in_3__A1 chany_top_in[17] VGND VGND VPWR VPWR sky130_fd_sc_hd__diode_2
XFILLER_6_29 VGND VGND VPWR VPWR sky130_fd_sc_hd__fill_1
XFILLER_25_148 VGND VGND VPWR VPWR sky130_fd_sc_hd__fill_2
Xmux_right_ipin_12.mux_l1_in_2_ chany_top_in[7] chany_bottom_in[7] mux_right_ipin_12.mux_l1_in_2_/S
+ VGND VGND VPWR VPWR mux_right_ipin_12.mux_l1_in_2_/X sky130_fd_sc_hd__mux2_1
XANTENNA_mux_right_ipin_10.mux_l2_in_2__A0 chany_bottom_in[15] VGND VGND VPWR VPWR
+ sky130_fd_sc_hd__diode_2
XANTENNA__45__A chany_top_in[11] VGND VGND VPWR VPWR sky130_fd_sc_hd__diode_2
XTAP_129 VGND VPWR sky130_fd_sc_hd__tapvpwrvgnd_1
XTAP_118 VGND VPWR sky130_fd_sc_hd__tapvpwrvgnd_1
XTAP_107 VGND VPWR sky130_fd_sc_hd__tapvpwrvgnd_1
XPHY_1 VGND VGND VPWR VPWR sky130_fd_sc_hd__decap_3
XFILLER_7_61 VGND VGND VPWR VPWR sky130_fd_sc_hd__decap_3
XFILLER_13_129 VGND VGND VPWR VPWR sky130_fd_sc_hd__fill_2
XANTENNA_mem_right_ipin_5.sky130_fd_sc_hd__dfxtp_1_1__CLK prog_clk_0_FTB00/X VGND
+ VGND VPWR VPWR sky130_fd_sc_hd__diode_2
Xmem_right_ipin_0.sky130_fd_sc_hd__dfxtp_1_3_ prog_clk_0_FTB00/X mux_right_ipin_0.mux_l3_in_1_/S
+ VGND VGND VPWR VPWR mux_right_ipin_0.mux_l4_in_0_/S sky130_fd_sc_hd__dfxtp_1
Xmux_right_ipin_8.mux_l1_in_0_ chany_top_in[1] chany_bottom_in[1] mux_right_ipin_8.mux_l1_in_2_/S
+ VGND VGND VPWR VPWR mux_right_ipin_8.mux_l1_in_0_/X sky130_fd_sc_hd__mux2_1
Xlogical_tile_io_mode_io__0.ltile_phy_iopad_0.EMBEDDED_IO_HD_0_.INV_SOC_DIR gfpga_pad_EMBEDDED_IO_HD_SOC_DIR
+ VGND VGND VPWR VPWR logical_tile_io_mode_io__0.ltile_phy_iopad_0.EMBEDDED_IO_HD_0_.INV_SOC_DIR/Y
+ sky130_fd_sc_hd__inv_1
XANTENNA_mem_right_ipin_8.sky130_fd_sc_hd__dfxtp_1_2__CLK prog_clk_0_FTB00/X VGND
+ VGND VPWR VPWR sky130_fd_sc_hd__diode_2
XFILLER_5_158 VGND VGND VPWR VPWR sky130_fd_sc_hd__fill_1
XANTENNA__53__A chany_top_in[19] VGND VGND VPWR VPWR sky130_fd_sc_hd__diode_2
XANTENNA_mux_right_ipin_12.mux_l1_in_1__A1 chany_bottom_in[3] VGND VGND VPWR VPWR
+ sky130_fd_sc_hd__diode_2
XANTENNA_mux_right_ipin_9.mux_l2_in_2__A1 chany_top_in[6] VGND VGND VPWR VPWR sky130_fd_sc_hd__diode_2
X_42_ chany_top_in[8] VGND VGND VPWR VPWR chany_bottom_out[8] sky130_fd_sc_hd__buf_2
Xmux_right_ipin_12.mux_l2_in_0_ mux_right_ipin_12.mux_l1_in_1_/X mux_right_ipin_12.mux_l1_in_0_/X
+ mux_right_ipin_12.mux_l2_in_3_/S VGND VGND VPWR VPWR mux_right_ipin_12.mux_l2_in_0_/X
+ sky130_fd_sc_hd__mux2_1
XANTENNA__48__A chany_top_in[14] VGND VGND VPWR VPWR sky130_fd_sc_hd__diode_2
Xmux_right_ipin_12.sky130_fd_sc_hd__buf_4_0_ mux_right_ipin_12.mux_l4_in_0_/X VGND
+ VGND VPWR VPWR left_grid_pin_28_ sky130_fd_sc_hd__buf_4
X_25_ VGND VGND VPWR VPWR _25_/HI _25_/LO sky130_fd_sc_hd__conb_1
XANTENNA_mem_left_ipin_0.sky130_fd_sc_hd__dfxtp_1_0__CLK prog_clk_0_FTB00/X VGND VGND
+ VPWR VPWR sky130_fd_sc_hd__diode_2
XFILLER_19_102 VGND VGND VPWR VPWR sky130_fd_sc_hd__decap_8
XFILLER_10_83 VGND VGND VPWR VPWR sky130_fd_sc_hd__fill_1
Xmux_right_ipin_12.mux_l1_in_1_ chany_top_in[3] chany_bottom_in[3] mux_right_ipin_12.mux_l1_in_2_/S
+ VGND VGND VPWR VPWR mux_right_ipin_12.mux_l1_in_1_/X sky130_fd_sc_hd__mux2_1
Xmux_right_ipin_4.sky130_fd_sc_hd__buf_4_0_ mux_right_ipin_4.mux_l4_in_0_/X VGND VGND
+ VPWR VPWR left_grid_pin_20_ sky130_fd_sc_hd__buf_4
Xmem_right_ipin_3.sky130_fd_sc_hd__dfxtp_1_3_ prog_clk_0_FTB00/X mux_right_ipin_3.mux_l3_in_1_/S
+ VGND VGND VPWR VPWR mux_right_ipin_3.mux_l4_in_0_/S sky130_fd_sc_hd__dfxtp_1
XANTENNA_mux_right_ipin_10.mux_l2_in_2__A1 chany_top_in[7] VGND VGND VPWR VPWR sky130_fd_sc_hd__diode_2
XANTENNA__61__A chany_bottom_in[7] VGND VGND VPWR VPWR sky130_fd_sc_hd__diode_2
XTAP_119 VGND VPWR sky130_fd_sc_hd__tapvpwrvgnd_1
XTAP_108 VGND VPWR sky130_fd_sc_hd__tapvpwrvgnd_1
XPHY_2 VGND VGND VPWR VPWR sky130_fd_sc_hd__decap_3
XFILLER_13_108 VGND VGND VPWR VPWR sky130_fd_sc_hd__fill_2
XANTENNA_mux_right_ipin_6.mux_l2_in_0__A0 chany_bottom_in[3] VGND VGND VPWR VPWR sky130_fd_sc_hd__diode_2
XANTENNA__56__A chany_bottom_in[2] VGND VGND VPWR VPWR sky130_fd_sc_hd__diode_2
Xmem_right_ipin_0.sky130_fd_sc_hd__dfxtp_1_2_ prog_clk_0_FTB00/X mux_right_ipin_0.mux_l2_in_3_/S
+ VGND VGND VPWR VPWR mux_right_ipin_0.mux_l3_in_1_/S sky130_fd_sc_hd__dfxtp_1
XFILLER_12_29 VGND VGND VPWR VPWR sky130_fd_sc_hd__fill_1
XFILLER_5_104 VGND VGND VPWR VPWR sky130_fd_sc_hd__decap_4
XANTENNA_mux_right_ipin_4.mux_l2_in_2__A0 chany_bottom_in[15] VGND VGND VPWR VPWR
+ sky130_fd_sc_hd__diode_2
X_41_ chany_top_in[7] VGND VGND VPWR VPWR chany_bottom_out[7] sky130_fd_sc_hd__buf_2
Xmem_right_ipin_6.sky130_fd_sc_hd__dfxtp_1_3_ prog_clk_0_FTB00/X mux_right_ipin_6.mux_l3_in_1_/S
+ VGND VGND VPWR VPWR mux_right_ipin_6.mux_l4_in_0_/S sky130_fd_sc_hd__dfxtp_1
XANTENNA__64__A chany_bottom_in[10] VGND VGND VPWR VPWR sky130_fd_sc_hd__diode_2
XFILLER_20_29 VGND VGND VPWR VPWR sky130_fd_sc_hd__fill_1
X_24_ VGND VGND VPWR VPWR _24_/HI _24_/LO sky130_fd_sc_hd__conb_1
XANTENNA__59__A chany_bottom_in[5] VGND VGND VPWR VPWR sky130_fd_sc_hd__diode_2
XFILLER_19_158 VGND VGND VPWR VPWR sky130_fd_sc_hd__fill_1
Xmem_right_ipin_3.sky130_fd_sc_hd__dfxtp_1_2_ prog_clk_0_FTB00/X mux_right_ipin_3.mux_l2_in_3_/S
+ VGND VGND VPWR VPWR mux_right_ipin_3.mux_l3_in_1_/S sky130_fd_sc_hd__dfxtp_1
Xmux_right_ipin_12.mux_l1_in_0_ chany_top_in[1] chany_bottom_in[1] mux_right_ipin_12.mux_l1_in_2_/S
+ VGND VGND VPWR VPWR mux_right_ipin_12.mux_l1_in_0_/X sky130_fd_sc_hd__mux2_1
XTAP_109 VGND VPWR sky130_fd_sc_hd__tapvpwrvgnd_1
XPHY_3 VGND VGND VPWR VPWR sky130_fd_sc_hd__decap_3
XANTENNA__72__A chany_bottom_in[18] VGND VGND VPWR VPWR sky130_fd_sc_hd__diode_2
XFILLER_21_131 VGND VPWR VPWR VGND sky130_ef_sc_hd__decap_12
Xmem_right_ipin_0.sky130_fd_sc_hd__dfxtp_1_1_ prog_clk_0_FTB00/X mux_right_ipin_0.mux_l1_in_2_/S
+ VGND VGND VPWR VPWR mux_right_ipin_0.mux_l2_in_3_/S sky130_fd_sc_hd__dfxtp_1
XANTENNA_mem_right_ipin_12.sky130_fd_sc_hd__dfxtp_1_2__CLK prog_clk_0_FTB00/X VGND
+ VGND VPWR VPWR sky130_fd_sc_hd__diode_2
Xmem_right_ipin_9.sky130_fd_sc_hd__dfxtp_1_3_ prog_clk_0_FTB00/X mux_right_ipin_9.mux_l3_in_1_/S
+ VGND VGND VPWR VPWR mux_right_ipin_9.mux_l4_in_0_/S sky130_fd_sc_hd__dfxtp_1
XANTENNA_mux_right_ipin_4.mux_l2_in_2__A1 chany_top_in[9] VGND VGND VPWR VPWR sky130_fd_sc_hd__diode_2
XANTENNA__67__A chany_bottom_in[13] VGND VGND VPWR VPWR sky130_fd_sc_hd__diode_2
XFILLER_4_42 VGND VGND VPWR VPWR sky130_fd_sc_hd__fill_1
XANTENNA_mux_right_ipin_14.mux_l2_in_1__A0 chany_bottom_in[11] VGND VGND VPWR VPWR
+ sky130_fd_sc_hd__diode_2
Xmem_right_ipin_11.sky130_fd_sc_hd__dfxtp_1_3_ prog_clk_0_FTB00/X mux_right_ipin_11.mux_l3_in_1_/S
+ VGND VGND VPWR VPWR mux_right_ipin_11.mux_l4_in_0_/S sky130_fd_sc_hd__dfxtp_1
X_40_ chany_top_in[6] VGND VGND VPWR VPWR chany_bottom_out[6] sky130_fd_sc_hd__buf_2
XANTENNA_mem_right_ipin_2.sky130_fd_sc_hd__dfxtp_1_3__CLK prog_clk_0_FTB00/X VGND
+ VGND VPWR VPWR sky130_fd_sc_hd__diode_2
XANTENNA_mem_right_ipin_15.sky130_fd_sc_hd__dfxtp_1_3__CLK prog_clk_0_FTB00/X VGND
+ VGND VPWR VPWR sky130_fd_sc_hd__diode_2
Xmem_right_ipin_6.sky130_fd_sc_hd__dfxtp_1_2_ prog_clk_0_FTB00/X mux_right_ipin_6.mux_l2_in_3_/S
+ VGND VGND VPWR VPWR mux_right_ipin_6.mux_l3_in_1_/S sky130_fd_sc_hd__dfxtp_1
X_23_ VGND VGND VPWR VPWR _23_/HI _23_/LO sky130_fd_sc_hd__conb_1
Xmux_right_ipin_4.mux_l2_in_3_ _17_/HI chany_top_in[15] mux_right_ipin_4.mux_l2_in_3_/S
+ VGND VGND VPWR VPWR mux_right_ipin_4.mux_l2_in_3_/X sky130_fd_sc_hd__mux2_1
XANTENNA_mux_right_ipin_1.mux_l2_in_0__A0 chany_bottom_in[2] VGND VGND VPWR VPWR sky130_fd_sc_hd__diode_2
Xmem_right_ipin_3.sky130_fd_sc_hd__dfxtp_1_1_ prog_clk_0_FTB00/X mux_right_ipin_3.mux_l1_in_2_/S
+ VGND VGND VPWR VPWR mux_right_ipin_3.mux_l2_in_3_/S sky130_fd_sc_hd__dfxtp_1
XFILLER_25_3 VGND VGND VPWR VPWR sky130_fd_sc_hd__fill_2
XANTENNA_mem_right_ipin_6.sky130_fd_sc_hd__dfxtp_1_0__CLK prog_clk_0_FTB00/X VGND
+ VGND VPWR VPWR sky130_fd_sc_hd__diode_2
XANTENNA_mux_left_ipin_0.mux_l1_in_1__A0 chany_top_in[2] VGND VGND VPWR VPWR sky130_fd_sc_hd__diode_2
XPHY_4 VGND VGND VPWR VPWR sky130_fd_sc_hd__decap_3
XFILLER_21_143 VGND VGND VPWR VPWR sky130_fd_sc_hd__fill_1
Xmux_right_ipin_4.mux_l4_in_0_ mux_right_ipin_4.mux_l3_in_1_/X mux_right_ipin_4.mux_l3_in_0_/X
+ mux_right_ipin_4.mux_l4_in_0_/S VGND VGND VPWR VPWR mux_right_ipin_4.mux_l4_in_0_/X
+ sky130_fd_sc_hd__mux2_1
Xmem_right_ipin_0.sky130_fd_sc_hd__dfxtp_1_0_ prog_clk_0_FTB00/X mux_left_ipin_0.mux_l4_in_0_/S
+ VGND VGND VPWR VPWR mux_right_ipin_0.mux_l1_in_2_/S sky130_fd_sc_hd__dfxtp_1
Xmem_right_ipin_14.sky130_fd_sc_hd__dfxtp_1_3_ prog_clk_0_FTB00/X mux_right_ipin_14.mux_l3_in_1_/S
+ VGND VGND VPWR VPWR mux_right_ipin_14.mux_l4_in_0_/S sky130_fd_sc_hd__dfxtp_1
XANTENNA_mem_right_ipin_9.sky130_fd_sc_hd__dfxtp_1_1__CLK prog_clk_0_FTB00/X VGND
+ VGND VPWR VPWR sky130_fd_sc_hd__diode_2