* NGSPICE file created from cby_1__1_.ext - technology: sky130A

* Black-box entry subcircuit for sky130_fd_sc_hd__decap_12 abstract view
.subckt sky130_fd_sc_hd__decap_12 VGND VNB VPB VPWR
.ends

* Black-box entry subcircuit for sky130_fd_sc_hd__fill_1 abstract view
.subckt sky130_fd_sc_hd__fill_1 VGND VNB VPB VPWR
.ends

* Black-box entry subcircuit for sky130_fd_sc_hd__decap_8 abstract view
.subckt sky130_fd_sc_hd__decap_8 VGND VNB VPB VPWR
.ends

* Black-box entry subcircuit for sky130_fd_sc_hd__mux2_1 abstract view
.subckt sky130_fd_sc_hd__mux2_1 A0 A1 S VGND VNB VPB VPWR X
.ends

* Black-box entry subcircuit for sky130_fd_sc_hd__clkbuf_1 abstract view
.subckt sky130_fd_sc_hd__clkbuf_1 A VGND VNB VPB VPWR X
.ends

* Black-box entry subcircuit for sky130_fd_sc_hd__dfxtp_1 abstract view
.subckt sky130_fd_sc_hd__dfxtp_1 CLK D VGND VNB VPB VPWR Q
.ends

* Black-box entry subcircuit for sky130_fd_sc_hd__diode_2 abstract view
.subckt sky130_fd_sc_hd__diode_2 DIODE VGND VNB VPB VPWR
.ends

* Black-box entry subcircuit for sky130_fd_sc_hd__fill_2 abstract view
.subckt sky130_fd_sc_hd__fill_2 VGND VNB VPB VPWR
.ends

* Black-box entry subcircuit for sky130_fd_sc_hd__clkbuf_2 abstract view
.subckt sky130_fd_sc_hd__clkbuf_2 A VGND VNB VPB VPWR X
.ends

* Black-box entry subcircuit for sky130_fd_sc_hd__decap_3 abstract view
.subckt sky130_fd_sc_hd__decap_3 VGND VNB VPB VPWR
.ends

* Black-box entry subcircuit for sky130_fd_sc_hd__decap_6 abstract view
.subckt sky130_fd_sc_hd__decap_6 VGND VNB VPB VPWR
.ends

* Black-box entry subcircuit for sky130_fd_sc_hd__decap_4 abstract view
.subckt sky130_fd_sc_hd__decap_4 VGND VNB VPB VPWR
.ends

* Black-box entry subcircuit for sky130_fd_sc_hd__buf_8 abstract view
.subckt sky130_fd_sc_hd__buf_8 A VGND VNB VPB VPWR X
.ends

* Black-box entry subcircuit for sky130_fd_sc_hd__conb_1 abstract view
.subckt sky130_fd_sc_hd__conb_1 VGND VNB VPB VPWR HI LO
.ends

* Black-box entry subcircuit for sky130_fd_sc_hd__tapvpwrvgnd_1 abstract view
.subckt sky130_fd_sc_hd__tapvpwrvgnd_1 VGND VPWR
.ends

* Black-box entry subcircuit for sky130_fd_sc_hd__buf_1 abstract view
.subckt sky130_fd_sc_hd__buf_1 A VGND VNB VPB VPWR X
.ends

* Black-box entry subcircuit for sky130_fd_sc_hd__buf_2 abstract view
.subckt sky130_fd_sc_hd__buf_2 A VGND VNB VPB VPWR X
.ends

* Black-box entry subcircuit for sky130_fd_sc_hd__dlymetal6s2s_1 abstract view
.subckt sky130_fd_sc_hd__dlymetal6s2s_1 A VGND VNB VPB VPWR X
.ends

* Black-box entry subcircuit for sky130_fd_sc_hd__buf_4 abstract view
.subckt sky130_fd_sc_hd__buf_4 A VGND VNB VPB VPWR X
.ends

* Black-box entry subcircuit for sky130_fd_sc_hd__clkbuf_16 abstract view
.subckt sky130_fd_sc_hd__clkbuf_16 A VGND VNB VPB VPWR X
.ends

.subckt cby_1__1_ Test_en_E_in Test_en_E_out Test_en_N_out Test_en_S_in Test_en_W_in
+ Test_en_W_out ccff_head ccff_tail chany_bottom_in[0] chany_bottom_in[10] chany_bottom_in[11]
+ chany_bottom_in[12] chany_bottom_in[13] chany_bottom_in[14] chany_bottom_in[15]
+ chany_bottom_in[16] chany_bottom_in[17] chany_bottom_in[18] chany_bottom_in[19]
+ chany_bottom_in[1] chany_bottom_in[2] chany_bottom_in[3] chany_bottom_in[4] chany_bottom_in[5]
+ chany_bottom_in[6] chany_bottom_in[7] chany_bottom_in[8] chany_bottom_in[9] chany_bottom_out[0]
+ chany_bottom_out[10] chany_bottom_out[11] chany_bottom_out[12] chany_bottom_out[13]
+ chany_bottom_out[14] chany_bottom_out[15] chany_bottom_out[16] chany_bottom_out[17]
+ chany_bottom_out[18] chany_bottom_out[19] chany_bottom_out[1] chany_bottom_out[2]
+ chany_bottom_out[3] chany_bottom_out[4] chany_bottom_out[5] chany_bottom_out[6]
+ chany_bottom_out[7] chany_bottom_out[8] chany_bottom_out[9] chany_top_in[0] chany_top_in[10]
+ chany_top_in[11] chany_top_in[12] chany_top_in[13] chany_top_in[14] chany_top_in[15]
+ chany_top_in[16] chany_top_in[17] chany_top_in[18] chany_top_in[19] chany_top_in[1]
+ chany_top_in[2] chany_top_in[3] chany_top_in[4] chany_top_in[5] chany_top_in[6]
+ chany_top_in[7] chany_top_in[8] chany_top_in[9] chany_top_out[0] chany_top_out[10]
+ chany_top_out[11] chany_top_out[12] chany_top_out[13] chany_top_out[14] chany_top_out[15]
+ chany_top_out[16] chany_top_out[17] chany_top_out[18] chany_top_out[19] chany_top_out[1]
+ chany_top_out[2] chany_top_out[3] chany_top_out[4] chany_top_out[5] chany_top_out[6]
+ chany_top_out[7] chany_top_out[8] chany_top_out[9] clk_2_N_out clk_2_S_in clk_2_S_out
+ clk_3_N_out clk_3_S_in clk_3_S_out left_grid_pin_16_ left_grid_pin_17_ left_grid_pin_18_
+ left_grid_pin_19_ left_grid_pin_20_ left_grid_pin_21_ left_grid_pin_22_ left_grid_pin_23_
+ left_grid_pin_24_ left_grid_pin_25_ left_grid_pin_26_ left_grid_pin_27_ left_grid_pin_28_
+ left_grid_pin_29_ left_grid_pin_30_ left_grid_pin_31_ prog_clk_0_N_out prog_clk_0_S_out
+ prog_clk_0_W_in prog_clk_2_N_out prog_clk_2_S_in prog_clk_2_S_out prog_clk_3_N_out
+ prog_clk_3_S_in prog_clk_3_S_out VPWR VGND
XFILLER_22_144 VGND VGND VPWR VPWR sky130_fd_sc_hd__decap_12
XFILLER_22_111 VGND VGND VPWR VPWR sky130_fd_sc_hd__decap_12
XFILLER_26_63 VGND VGND VPWR VPWR sky130_fd_sc_hd__fill_1
XFILLER_9_148 VGND VGND VPWR VPWR sky130_fd_sc_hd__decap_8
Xmux_right_ipin_11.mux_l2_in_0_ mux_right_ipin_11.mux_l1_in_1_/X mux_right_ipin_11.mux_l1_in_0_/X
+ mux_right_ipin_11.mux_l2_in_3_/S VGND VGND VPWR VPWR mux_right_ipin_11.mux_l2_in_0_/X
+ sky130_fd_sc_hd__mux2_1
XFILLER_10_158 VGND VGND VPWR VPWR sky130_fd_sc_hd__fill_1
X_66_ _66_/A VGND VGND VPWR VPWR _66_/X sky130_fd_sc_hd__clkbuf_1
Xmem_right_ipin_15.sky130_fd_sc_hd__dfxtp_1_1_ clkbuf_3_6_0_mem_right_ipin_0.prog_clk/X
+ mux_right_ipin_15.mux_l1_in_2_/S VGND VGND VPWR VPWR mux_right_ipin_15.mux_l2_in_3_/S
+ sky130_fd_sc_hd__dfxtp_1
Xmux_right_ipin_11.mux_l1_in_1_ _35_/A _55_/A mux_right_ipin_11.mux_l1_in_2_/S VGND
+ VGND VPWR VPWR mux_right_ipin_11.mux_l1_in_1_/X sky130_fd_sc_hd__mux2_1
X_49_ _49_/A VGND VGND VPWR VPWR _49_/X sky130_fd_sc_hd__clkbuf_1
XFILLER_22_7 VGND VGND VPWR VPWR sky130_fd_sc_hd__decap_12
XANTENNA_mux_right_ipin_11.mux_l1_in_1__A1 _55_/A VGND VGND VPWR VPWR sky130_fd_sc_hd__diode_2
Xmem_right_ipin_12.sky130_fd_sc_hd__dfxtp_1_0_ clkbuf_3_7_0_mem_right_ipin_0.prog_clk/X
+ mux_right_ipin_11.mux_l4_in_0_/S VGND VGND VPWR VPWR mux_right_ipin_12.mux_l1_in_2_/S
+ sky130_fd_sc_hd__dfxtp_1
XANTENNA_input18_A chany_bottom_in[3] VGND VGND VPWR VPWR sky130_fd_sc_hd__diode_2
XFILLER_26_109 VGND VGND VPWR VPWR sky130_fd_sc_hd__fill_2
Xoutput75 _63_/X VGND VGND VPWR VPWR chany_top_out[11] sky130_fd_sc_hd__clkbuf_2
Xoutput86 _55_/X VGND VGND VPWR VPWR chany_top_out[3] sky130_fd_sc_hd__clkbuf_2
XFILLER_16_142 VGND VGND VPWR VPWR sky130_fd_sc_hd__fill_1
Xoutput97 output97/A VGND VGND VPWR VPWR left_grid_pin_16_ sky130_fd_sc_hd__clkbuf_2
Xoutput53 _32_/X VGND VGND VPWR VPWR chany_bottom_out[0] sky130_fd_sc_hd__clkbuf_2
Xoutput64 _33_/X VGND VGND VPWR VPWR chany_bottom_out[1] sky130_fd_sc_hd__clkbuf_2
XFILLER_22_156 VGND VGND VPWR VPWR sky130_fd_sc_hd__decap_3
XFILLER_22_123 VGND VGND VPWR VPWR sky130_fd_sc_hd__decap_12
XANTENNA_mux_right_ipin_5.mux_l2_in_0__A0 _55_/A VGND VGND VPWR VPWR sky130_fd_sc_hd__diode_2
X_65_ _65_/A VGND VGND VPWR VPWR _65_/X sky130_fd_sc_hd__clkbuf_1
Xmux_right_ipin_8.sky130_fd_sc_hd__buf_4_0_ mux_right_ipin_8.mux_l4_in_0_/X VGND VGND
+ VPWR VPWR output105/A sky130_fd_sc_hd__clkbuf_1
Xmem_right_ipin_15.sky130_fd_sc_hd__dfxtp_1_0_ clkbuf_3_6_0_mem_right_ipin_0.prog_clk/X
+ mux_right_ipin_14.mux_l4_in_0_/S VGND VGND VPWR VPWR mux_right_ipin_15.mux_l1_in_2_/S
+ sky130_fd_sc_hd__dfxtp_1
XANTENNA_input48_A prog_clk_3_S_in VGND VGND VPWR VPWR sky130_fd_sc_hd__diode_2
Xmux_right_ipin_11.mux_l1_in_0_ _33_/A _53_/A mux_right_ipin_11.mux_l1_in_2_/S VGND
+ VGND VPWR VPWR mux_right_ipin_11.mux_l1_in_0_/X sky130_fd_sc_hd__mux2_1
X_48_ _48_/A VGND VGND VPWR VPWR _48_/X sky130_fd_sc_hd__clkbuf_1
XFILLER_20_33 VGND VGND VPWR VPWR sky130_fd_sc_hd__fill_2
Xoutput76 _64_/X VGND VGND VPWR VPWR chany_top_out[12] sky130_fd_sc_hd__clkbuf_2
Xoutput87 _56_/X VGND VGND VPWR VPWR chany_top_out[4] sky130_fd_sc_hd__clkbuf_2
XANTENNA_output117_A output117/A VGND VGND VPWR VPWR sky130_fd_sc_hd__diode_2
XANTENNA_input30_A chany_top_in[14] VGND VGND VPWR VPWR sky130_fd_sc_hd__diode_2
Xoutput54 _42_/X VGND VGND VPWR VPWR chany_bottom_out[10] sky130_fd_sc_hd__clkbuf_2
Xoutput65 _34_/X VGND VGND VPWR VPWR chany_bottom_out[2] sky130_fd_sc_hd__clkbuf_2
Xoutput98 output98/A VGND VGND VPWR VPWR left_grid_pin_17_ sky130_fd_sc_hd__clkbuf_2
XFILLER_22_135 VGND VGND VPWR VPWR sky130_fd_sc_hd__decap_8
XFILLER_26_87 VGND VGND VPWR VPWR sky130_fd_sc_hd__decap_12
XFILLER_26_54 VGND VGND VPWR VPWR sky130_fd_sc_hd__decap_6
XFILLER_26_32 VGND VGND VPWR VPWR sky130_fd_sc_hd__decap_8
XANTENNA_mux_right_ipin_15.mux_l1_in_0__A0 _33_/A VGND VGND VPWR VPWR sky130_fd_sc_hd__diode_2
XFILLER_8_150 VGND VGND VPWR VPWR sky130_fd_sc_hd__decap_8
XANTENNA_prog_clk_0_S_FTB01_A prog_clk_0_W_in VGND VGND VPWR VPWR sky130_fd_sc_hd__diode_2
X_64_ _64_/A VGND VGND VPWR VPWR _64_/X sky130_fd_sc_hd__clkbuf_1
Xmux_right_ipin_3.mux_l2_in_3_ _29_/HI _51_/A mux_right_ipin_3.mux_l2_in_3_/S VGND
+ VGND VPWR VPWR mux_right_ipin_3.mux_l2_in_3_/X sky130_fd_sc_hd__mux2_1
XANTENNA_mux_right_ipin_3.mux_l2_in_2__A1 _45_/A VGND VGND VPWR VPWR sky130_fd_sc_hd__diode_2
X_47_ _47_/A VGND VGND VPWR VPWR _47_/X sky130_fd_sc_hd__clkbuf_1
XANTENNA_mux_right_ipin_13.mux_l2_in_1__A0 _61_/A VGND VGND VPWR VPWR sky130_fd_sc_hd__diode_2
XANTENNA_mux_right_ipin_0.mux_l1_in_1__A0 _34_/A VGND VGND VPWR VPWR sky130_fd_sc_hd__diode_2
Xmux_right_ipin_3.mux_l4_in_0_ mux_right_ipin_3.mux_l3_in_1_/X mux_right_ipin_3.mux_l3_in_0_/X
+ mux_right_ipin_3.mux_l4_in_0_/S VGND VGND VPWR VPWR mux_right_ipin_3.mux_l4_in_0_/X
+ sky130_fd_sc_hd__mux2_1
Xoutput77 _65_/X VGND VGND VPWR VPWR chany_top_out[13] sky130_fd_sc_hd__clkbuf_2
Xoutput88 _57_/X VGND VGND VPWR VPWR chany_top_out[5] sky130_fd_sc_hd__clkbuf_2
XFILLER_25_144 VGND VGND VPWR VPWR sky130_fd_sc_hd__fill_1
XFILLER_16_155 VGND VGND VPWR VPWR sky130_fd_sc_hd__decap_4
Xoutput66 _35_/X VGND VGND VPWR VPWR chany_bottom_out[3] sky130_fd_sc_hd__clkbuf_2
Xoutput55 _43_/X VGND VGND VPWR VPWR chany_bottom_out[11] sky130_fd_sc_hd__clkbuf_2
Xoutput99 output99/A VGND VGND VPWR VPWR left_grid_pin_18_ sky130_fd_sc_hd__clkbuf_2
XANTENNA_input23_A chany_bottom_in[8] VGND VGND VPWR VPWR sky130_fd_sc_hd__diode_2
Xmux_right_ipin_8.mux_l2_in_3_ _18_/HI _50_/A mux_right_ipin_8.mux_l2_in_3_/S VGND
+ VGND VPWR VPWR mux_right_ipin_8.mux_l2_in_3_/X sky130_fd_sc_hd__mux2_1
XFILLER_26_66 VGND VGND VPWR VPWR sky130_fd_sc_hd__decap_12
XFILLER_13_158 VGND VGND VPWR VPWR sky130_fd_sc_hd__fill_1
XANTENNA_mux_right_ipin_15.mux_l1_in_0__A1 _53_/A VGND VGND VPWR VPWR sky130_fd_sc_hd__diode_2
Xmux_right_ipin_3.mux_l3_in_1_ mux_right_ipin_3.mux_l2_in_3_/X mux_right_ipin_3.mux_l2_in_2_/X
+ mux_right_ipin_3.mux_l3_in_1_/S VGND VGND VPWR VPWR mux_right_ipin_3.mux_l3_in_1_/X
+ sky130_fd_sc_hd__mux2_1
X_63_ _63_/A VGND VGND VPWR VPWR _63_/X sky130_fd_sc_hd__clkbuf_1
Xmux_right_ipin_3.mux_l2_in_2_ _71_/A _45_/A mux_right_ipin_3.mux_l2_in_3_/S VGND
+ VGND VPWR VPWR mux_right_ipin_3.mux_l2_in_2_/X sky130_fd_sc_hd__mux2_1
XANTENNA_mux_right_ipin_9.mux_l1_in_0__A0 _33_/A VGND VGND VPWR VPWR sky130_fd_sc_hd__diode_2
Xmux_right_ipin_8.mux_l4_in_0_ mux_right_ipin_8.mux_l3_in_1_/X mux_right_ipin_8.mux_l3_in_0_/X
+ mux_right_ipin_8.mux_l4_in_0_/S VGND VGND VPWR VPWR mux_right_ipin_8.mux_l4_in_0_/X
+ sky130_fd_sc_hd__mux2_1
Xprog_clk_0_FTB00 prog_clk_0_W_in VGND VGND VPWR VPWR prog_clk_0_FTB00/X sky130_fd_sc_hd__buf_8
X_46_ _46_/A VGND VGND VPWR VPWR _46_/X sky130_fd_sc_hd__clkbuf_1
Xclkbuf_1_0_0_mem_right_ipin_0.prog_clk clkbuf_0_mem_right_ipin_0.prog_clk/X VGND
+ VGND VPWR VPWR clkbuf_2_1_0_mem_right_ipin_0.prog_clk/A sky130_fd_sc_hd__clkbuf_1
XANTENNA_mux_right_ipin_13.mux_l2_in_1__A1 _35_/A VGND VGND VPWR VPWR sky130_fd_sc_hd__diode_2
XANTENNA_mux_right_ipin_7.mux_l1_in_2__A0 _39_/A VGND VGND VPWR VPWR sky130_fd_sc_hd__diode_2
Xmux_right_ipin_8.mux_l3_in_1_ mux_right_ipin_8.mux_l2_in_3_/X mux_right_ipin_8.mux_l2_in_2_/X
+ mux_right_ipin_8.mux_l3_in_1_/S VGND VGND VPWR VPWR mux_right_ipin_8.mux_l3_in_1_/X
+ sky130_fd_sc_hd__mux2_1
XANTENNA_mux_right_ipin_0.mux_l1_in_1__A1 _54_/A VGND VGND VPWR VPWR sky130_fd_sc_hd__diode_2
Xmux_right_ipin_1.sky130_fd_sc_hd__buf_4_0_ mux_right_ipin_1.mux_l4_in_0_/X VGND VGND
+ VPWR VPWR output98/A sky130_fd_sc_hd__clkbuf_1
X_29_ VGND VGND VPWR VPWR _29_/HI _29_/LO sky130_fd_sc_hd__conb_1
Xprog_clk_3_N_FTB01 input48/X VGND VGND VPWR VPWR output117/A sky130_fd_sc_hd__clkbuf_2
XFILLER_19_131 VGND VGND VPWR VPWR sky130_fd_sc_hd__decap_12
XFILLER_20_7 VGND VGND VPWR VPWR sky130_fd_sc_hd__decap_8
XANTENNA_mux_right_ipin_10.mux_l1_in_0__A0 _32_/A VGND VGND VPWR VPWR sky130_fd_sc_hd__diode_2
Xoutput78 _66_/X VGND VGND VPWR VPWR chany_top_out[14] sky130_fd_sc_hd__clkbuf_2
Xoutput89 _58_/X VGND VGND VPWR VPWR chany_top_out[6] sky130_fd_sc_hd__clkbuf_2
Xoutput56 _44_/X VGND VGND VPWR VPWR chany_bottom_out[12] sky130_fd_sc_hd__clkbuf_2
Xoutput67 _36_/X VGND VGND VPWR VPWR chany_bottom_out[4] sky130_fd_sc_hd__clkbuf_2
Xmux_right_ipin_8.mux_l2_in_2_ _70_/A _44_/A mux_right_ipin_8.mux_l2_in_3_/S VGND
+ VGND VPWR VPWR mux_right_ipin_8.mux_l2_in_2_/X sky130_fd_sc_hd__mux2_1
XANTENNA_input16_A chany_bottom_in[1] VGND VGND VPWR VPWR sky130_fd_sc_hd__diode_2
XFILLER_26_78 VGND VGND VPWR VPWR sky130_fd_sc_hd__decap_8
XANTENNA_input8_A chany_bottom_in[12] VGND VGND VPWR VPWR sky130_fd_sc_hd__diode_2
Xmux_right_ipin_3.mux_l3_in_0_ mux_right_ipin_3.mux_l2_in_1_/X mux_right_ipin_3.mux_l2_in_0_/X
+ mux_right_ipin_3.mux_l3_in_1_/S VGND VGND VPWR VPWR mux_right_ipin_3.mux_l3_in_0_/X
+ sky130_fd_sc_hd__mux2_1
X_62_ _62_/A VGND VGND VPWR VPWR _62_/X sky130_fd_sc_hd__clkbuf_1
Xmux_right_ipin_3.mux_l2_in_1_ _65_/A mux_right_ipin_3.mux_l1_in_2_/X mux_right_ipin_3.mux_l2_in_3_/S
+ VGND VGND VPWR VPWR mux_right_ipin_3.mux_l2_in_1_/X sky130_fd_sc_hd__mux2_1
XFILLER_23_35 VGND VGND VPWR VPWR sky130_fd_sc_hd__fill_1
XANTENNA_mux_right_ipin_9.mux_l1_in_0__A1 _53_/A VGND VGND VPWR VPWR sky130_fd_sc_hd__diode_2
X_45_ _45_/A VGND VGND VPWR VPWR _45_/X sky130_fd_sc_hd__clkbuf_1
Xmux_right_ipin_12.mux_l2_in_3_ _24_/HI _48_/A mux_right_ipin_12.mux_l2_in_3_/S VGND
+ VGND VPWR VPWR mux_right_ipin_12.mux_l2_in_3_/X sky130_fd_sc_hd__mux2_1
XANTENNA_input46_A clk_3_S_in VGND VGND VPWR VPWR sky130_fd_sc_hd__diode_2
Xmux_right_ipin_3.mux_l1_in_2_ _39_/A _59_/A mux_right_ipin_3.mux_l1_in_2_/S VGND
+ VGND VPWR VPWR mux_right_ipin_3.mux_l1_in_2_/X sky130_fd_sc_hd__mux2_1
XANTENNA_mux_right_ipin_7.mux_l1_in_2__A1 _59_/A VGND VGND VPWR VPWR sky130_fd_sc_hd__diode_2
Xmux_right_ipin_8.mux_l3_in_0_ mux_right_ipin_8.mux_l2_in_1_/X mux_right_ipin_8.mux_l2_in_0_/X
+ mux_right_ipin_8.mux_l3_in_1_/S VGND VGND VPWR VPWR mux_right_ipin_8.mux_l3_in_0_/X
+ sky130_fd_sc_hd__mux2_1
X_28_ VGND VGND VPWR VPWR _28_/HI _28_/LO sky130_fd_sc_hd__conb_1
XFILLER_19_143 VGND VGND VPWR VPWR sky130_fd_sc_hd__decap_12
XANTENNA_mux_right_ipin_10.mux_l1_in_0__A1 _52_/A VGND VGND VPWR VPWR sky130_fd_sc_hd__diode_2
XFILLER_25_135 VGND VGND VPWR VPWR sky130_fd_sc_hd__fill_1
XFILLER_25_113 VGND VGND VPWR VPWR sky130_fd_sc_hd__fill_1
Xoutput57 _45_/X VGND VGND VPWR VPWR chany_bottom_out[13] sky130_fd_sc_hd__clkbuf_2
XPHY_130 VGND VPWR sky130_fd_sc_hd__tapvpwrvgnd_1
Xoutput79 _67_/X VGND VGND VPWR VPWR chany_top_out[15] sky130_fd_sc_hd__clkbuf_2
Xmux_right_ipin_8.mux_l2_in_1_ _64_/A mux_right_ipin_8.mux_l1_in_2_/X mux_right_ipin_8.mux_l2_in_3_/S
+ VGND VGND VPWR VPWR mux_right_ipin_8.mux_l2_in_1_/X sky130_fd_sc_hd__mux2_1
Xoutput68 _37_/X VGND VGND VPWR VPWR chany_bottom_out[5] sky130_fd_sc_hd__clkbuf_2
Xmux_right_ipin_12.mux_l4_in_0_ mux_right_ipin_12.mux_l3_in_1_/X mux_right_ipin_12.mux_l3_in_0_/X
+ mux_right_ipin_12.mux_l4_in_0_/S VGND VGND VPWR VPWR mux_right_ipin_12.mux_l4_in_0_/X
+ sky130_fd_sc_hd__mux2_1
XANTENNA_output115_A output115/A VGND VGND VPWR VPWR sky130_fd_sc_hd__diode_2
XANTENNA_mux_right_ipin_4.mux_l1_in_0__A0 _32_/A VGND VGND VPWR VPWR sky130_fd_sc_hd__diode_2
Xmux_right_ipin_8.mux_l1_in_2_ _40_/A _60_/A mux_right_ipin_8.mux_l1_in_2_/S VGND
+ VGND VPWR VPWR mux_right_ipin_8.mux_l1_in_2_/X sky130_fd_sc_hd__mux2_1
X_61_ _61_/A VGND VGND VPWR VPWR _61_/X sky130_fd_sc_hd__clkbuf_1
Xmux_right_ipin_12.mux_l3_in_1_ mux_right_ipin_12.mux_l2_in_3_/X mux_right_ipin_12.mux_l2_in_2_/X
+ mux_right_ipin_12.mux_l3_in_1_/S VGND VGND VPWR VPWR mux_right_ipin_12.mux_l3_in_1_/X
+ sky130_fd_sc_hd__mux2_1
Xmux_right_ipin_3.mux_l2_in_0_ mux_right_ipin_3.mux_l1_in_1_/X mux_right_ipin_3.mux_l1_in_0_/X
+ mux_right_ipin_3.mux_l2_in_3_/S VGND VGND VPWR VPWR mux_right_ipin_3.mux_l2_in_0_/X
+ sky130_fd_sc_hd__mux2_1
X_44_ _44_/A VGND VGND VPWR VPWR _44_/X sky130_fd_sc_hd__clkbuf_1
XANTENNA_input39_A chany_top_in[4] VGND VGND VPWR VPWR sky130_fd_sc_hd__diode_2
Xmux_right_ipin_12.mux_l2_in_2_ _68_/A _44_/A mux_right_ipin_12.mux_l2_in_3_/S VGND
+ VGND VPWR VPWR mux_right_ipin_12.mux_l2_in_2_/X sky130_fd_sc_hd__mux2_1
Xmux_right_ipin_3.mux_l1_in_1_ _35_/A _55_/A mux_right_ipin_3.mux_l1_in_2_/S VGND
+ VGND VPWR VPWR mux_right_ipin_3.mux_l1_in_1_/X sky130_fd_sc_hd__mux2_1
X_27_ VGND VGND VPWR VPWR _27_/HI _27_/LO sky130_fd_sc_hd__conb_1
XFILLER_20_15 VGND VGND VPWR VPWR sky130_fd_sc_hd__fill_1
XFILLER_19_155 VGND VGND VPWR VPWR sky130_fd_sc_hd__decap_4
XANTENNA__34__A _34_/A VGND VGND VPWR VPWR sky130_fd_sc_hd__diode_2
XPHY_120 VGND VPWR sky130_fd_sc_hd__tapvpwrvgnd_1
Xmux_right_ipin_8.mux_l2_in_0_ mux_right_ipin_8.mux_l1_in_1_/X mux_right_ipin_8.mux_l1_in_0_/X
+ mux_right_ipin_8.mux_l2_in_3_/S VGND VGND VPWR VPWR mux_right_ipin_8.mux_l2_in_0_/X
+ sky130_fd_sc_hd__mux2_1
Xoutput69 _38_/X VGND VGND VPWR VPWR chany_bottom_out[6] sky130_fd_sc_hd__clkbuf_2
Xoutput58 _46_/X VGND VGND VPWR VPWR chany_bottom_out[14] sky130_fd_sc_hd__clkbuf_2
XPHY_0 VGND VGND VPWR VPWR sky130_fd_sc_hd__decap_3
XANTENNA_input21_A chany_bottom_in[6] VGND VGND VPWR VPWR sky130_fd_sc_hd__diode_2
XANTENNA_mux_right_ipin_4.mux_l1_in_0__A1 _52_/A VGND VGND VPWR VPWR sky130_fd_sc_hd__diode_2
Xmux_right_ipin_8.mux_l1_in_1_ _34_/A _54_/A mux_right_ipin_8.mux_l1_in_2_/S VGND
+ VGND VPWR VPWR mux_right_ipin_8.mux_l1_in_1_/X sky130_fd_sc_hd__mux2_1
X_60_ _60_/A VGND VGND VPWR VPWR _60_/X sky130_fd_sc_hd__clkbuf_1
Xmux_right_ipin_12.mux_l3_in_0_ mux_right_ipin_12.mux_l2_in_1_/X mux_right_ipin_12.mux_l2_in_0_/X
+ mux_right_ipin_12.mux_l3_in_1_/S VGND VGND VPWR VPWR mux_right_ipin_12.mux_l3_in_0_/X
+ sky130_fd_sc_hd__mux2_1
XANTENNA__42__A _42_/A VGND VGND VPWR VPWR sky130_fd_sc_hd__diode_2
XFILLER_23_15 VGND VGND VPWR VPWR sky130_fd_sc_hd__decap_12
XANTENNA_mux_right_ipin_12.mux_l1_in_1__A0 _34_/A VGND VGND VPWR VPWR sky130_fd_sc_hd__diode_2
XANTENNA__37__A _37_/A VGND VGND VPWR VPWR sky130_fd_sc_hd__diode_2
X_43_ _43_/A VGND VGND VPWR VPWR _43_/X sky130_fd_sc_hd__clkbuf_1
Xmux_right_ipin_12.mux_l2_in_1_ _64_/A mux_right_ipin_12.mux_l1_in_2_/X mux_right_ipin_12.mux_l2_in_3_/S
+ VGND VGND VPWR VPWR mux_right_ipin_12.mux_l2_in_1_/X sky130_fd_sc_hd__mux2_1
Xprog_clk_2_S_FTB01 input47/X VGND VGND VPWR VPWR output116/A sky130_fd_sc_hd__clkbuf_1
XANTENNA_mux_right_ipin_2.mux_l2_in_1__A1 _34_/A VGND VGND VPWR VPWR sky130_fd_sc_hd__diode_2
Xmux_right_ipin_3.mux_l1_in_0_ _33_/A _53_/A mux_right_ipin_3.mux_l1_in_2_/S VGND
+ VGND VPWR VPWR mux_right_ipin_3.mux_l1_in_0_/X sky130_fd_sc_hd__mux2_1
Xclkbuf_3_2_0_mem_right_ipin_0.prog_clk clkbuf_3_3_0_mem_right_ipin_0.prog_clk/A VGND
+ VGND VPWR VPWR clkbuf_3_2_0_mem_right_ipin_0.prog_clk/X sky130_fd_sc_hd__clkbuf_1
X_26_ VGND VGND VPWR VPWR _26_/HI _26_/LO sky130_fd_sc_hd__conb_1
XANTENNA_mux_right_ipin_0.mux_l2_in_3__A1 _48_/A VGND VGND VPWR VPWR sky130_fd_sc_hd__diode_2
XFILLER_25_115 VGND VGND VPWR VPWR sky130_fd_sc_hd__decap_12
Xmux_right_ipin_12.mux_l1_in_2_ _38_/A _58_/A mux_right_ipin_12.mux_l1_in_2_/S VGND
+ VGND VPWR VPWR mux_right_ipin_12.mux_l1_in_2_/X sky130_fd_sc_hd__mux2_1
XPHY_121 VGND VPWR sky130_fd_sc_hd__tapvpwrvgnd_1
XPHY_110 VGND VPWR sky130_fd_sc_hd__tapvpwrvgnd_1
Xoutput59 _47_/X VGND VGND VPWR VPWR chany_bottom_out[15] sky130_fd_sc_hd__clkbuf_2
XANTENNA__45__A _45_/A VGND VGND VPWR VPWR sky130_fd_sc_hd__diode_2
XPHY_1 VGND VGND VPWR VPWR sky130_fd_sc_hd__decap_3
XFILLER_21_151 VGND VGND VPWR VPWR sky130_fd_sc_hd__decap_8
XANTENNA_input14_A chany_bottom_in[18] VGND VGND VPWR VPWR sky130_fd_sc_hd__diode_2
Xmem_right_ipin_0.sky130_fd_sc_hd__dfxtp_1_3_ clkbuf_3_0_0_mem_right_ipin_0.prog_clk/X
+ mux_right_ipin_0.mux_l3_in_1_/S VGND VGND VPWR VPWR mux_right_ipin_0.mux_l4_in_0_/S
+ sky130_fd_sc_hd__dfxtp_1
Xmux_right_ipin_8.mux_l1_in_0_ _32_/A _52_/A mux_right_ipin_8.mux_l1_in_2_/S VGND
+ VGND VPWR VPWR mux_right_ipin_8.mux_l1_in_0_/X sky130_fd_sc_hd__mux2_1
XANTENNA_input6_A chany_bottom_in[10] VGND VGND VPWR VPWR sky130_fd_sc_hd__diode_2
Xclkbuf_3_5_0_mem_right_ipin_0.prog_clk clkbuf_3_5_0_mem_right_ipin_0.prog_clk/A VGND
+ VGND VPWR VPWR clkbuf_3_5_0_mem_right_ipin_0.prog_clk/X sky130_fd_sc_hd__clkbuf_1
XFILLER_5_158 VGND VGND VPWR VPWR sky130_fd_sc_hd__fill_1
XFILLER_23_38 VGND VGND VPWR VPWR sky130_fd_sc_hd__fill_1
XFILLER_23_27 VGND VGND VPWR VPWR sky130_fd_sc_hd__decap_8
XANTENNA__53__A _53_/A VGND VGND VPWR VPWR sky130_fd_sc_hd__diode_2
XANTENNA_mux_right_ipin_12.mux_l1_in_1__A1 _54_/A VGND VGND VPWR VPWR sky130_fd_sc_hd__diode_2
XANTENNA_mux_right_ipin_9.mux_l2_in_2__A1 _37_/A VGND VGND VPWR VPWR sky130_fd_sc_hd__diode_2
X_42_ _42_/A VGND VGND VPWR VPWR _42_/X sky130_fd_sc_hd__clkbuf_1
Xmux_right_ipin_12.mux_l2_in_0_ mux_right_ipin_12.mux_l1_in_1_/X mux_right_ipin_12.mux_l1_in_0_/X
+ mux_right_ipin_12.mux_l2_in_3_/S VGND VGND VPWR VPWR mux_right_ipin_12.mux_l2_in_0_/X
+ sky130_fd_sc_hd__mux2_1
XANTENNA__48__A _48_/A VGND VGND VPWR VPWR sky130_fd_sc_hd__diode_2
X_25_ VGND VGND VPWR VPWR _25_/HI _25_/LO sky130_fd_sc_hd__conb_1
Xmux_right_ipin_12.sky130_fd_sc_hd__buf_4_0_ mux_right_ipin_12.mux_l4_in_0_/X VGND
+ VGND VPWR VPWR output109/A sky130_fd_sc_hd__clkbuf_1
XANTENNA_Test_en_N_FTB01_A input2/X VGND VGND VPWR VPWR sky130_fd_sc_hd__diode_2
XANTENNA_input44_A chany_top_in[9] VGND VGND VPWR VPWR sky130_fd_sc_hd__diode_2
Xmux_right_ipin_12.mux_l1_in_1_ _34_/A _54_/A mux_right_ipin_12.mux_l1_in_2_/S VGND
+ VGND VPWR VPWR mux_right_ipin_12.mux_l1_in_1_/X sky130_fd_sc_hd__mux2_1
Xmux_right_ipin_4.sky130_fd_sc_hd__buf_4_0_ mux_right_ipin_4.mux_l4_in_0_/X VGND VGND
+ VPWR VPWR output101/A sky130_fd_sc_hd__clkbuf_1
Xmem_right_ipin_3.sky130_fd_sc_hd__dfxtp_1_3_ clkbuf_3_3_0_mem_right_ipin_0.prog_clk/X
+ mux_right_ipin_3.mux_l3_in_1_/S VGND VGND VPWR VPWR mux_right_ipin_3.mux_l4_in_0_/S
+ sky130_fd_sc_hd__dfxtp_1
XFILLER_25_127 VGND VGND VPWR VPWR sky130_fd_sc_hd__decap_8
XANTENNA_mux_right_ipin_10.mux_l2_in_2__A1 _38_/A VGND VGND VPWR VPWR sky130_fd_sc_hd__diode_2
XPHY_100 VGND VPWR sky130_fd_sc_hd__tapvpwrvgnd_1
Xoutput49 output49/A VGND VGND VPWR VPWR Test_en_E_out sky130_fd_sc_hd__clkbuf_2
XPHY_122 VGND VPWR sky130_fd_sc_hd__tapvpwrvgnd_1
XANTENNA__61__A _61_/A VGND VGND VPWR VPWR sky130_fd_sc_hd__diode_2
XPHY_111 VGND VPWR sky130_fd_sc_hd__tapvpwrvgnd_1
XPHY_2 VGND VGND VPWR VPWR sky130_fd_sc_hd__decap_3
XANTENNA_mux_right_ipin_6.mux_l2_in_0__A0 _54_/A VGND VGND VPWR VPWR sky130_fd_sc_hd__diode_2
XANTENNA__56__A _56_/A VGND VGND VPWR VPWR sky130_fd_sc_hd__diode_2
Xmem_right_ipin_0.sky130_fd_sc_hd__dfxtp_1_2_ clkbuf_3_2_0_mem_right_ipin_0.prog_clk/X
+ mux_right_ipin_0.mux_l2_in_3_/S VGND VGND VPWR VPWR mux_right_ipin_0.mux_l3_in_1_/S
+ sky130_fd_sc_hd__dfxtp_1
XFILLER_27_92 VGND VGND VPWR VPWR sky130_fd_sc_hd__decap_3
XFILLER_4_30 VGND VGND VPWR VPWR sky130_fd_sc_hd__fill_1
X_41_ _41_/A VGND VGND VPWR VPWR _41_/X sky130_fd_sc_hd__clkbuf_1
Xmem_right_ipin_6.sky130_fd_sc_hd__dfxtp_1_3_ clkbuf_3_1_0_mem_right_ipin_0.prog_clk/X
+ mux_right_ipin_6.mux_l3_in_1_/S VGND VGND VPWR VPWR mux_right_ipin_6.mux_l4_in_0_/S
+ sky130_fd_sc_hd__dfxtp_1
X_24_ VGND VGND VPWR VPWR _24_/HI _24_/LO sky130_fd_sc_hd__conb_1
XANTENNA_input37_A chany_top_in[2] VGND VGND VPWR VPWR sky130_fd_sc_hd__diode_2
XANTENNA__59__A _59_/A VGND VGND VPWR VPWR sky130_fd_sc_hd__diode_2
Xmem_right_ipin_3.sky130_fd_sc_hd__dfxtp_1_2_ clkbuf_3_2_0_mem_right_ipin_0.prog_clk/X
+ mux_right_ipin_3.mux_l2_in_3_/S VGND VGND VPWR VPWR mux_right_ipin_3.mux_l3_in_1_/S
+ sky130_fd_sc_hd__dfxtp_1
Xmux_right_ipin_12.mux_l1_in_0_ _32_/A _52_/A mux_right_ipin_12.mux_l1_in_2_/S VGND
+ VGND VPWR VPWR mux_right_ipin_12.mux_l1_in_0_/X sky130_fd_sc_hd__mux2_1
XPHY_123 VGND VPWR sky130_fd_sc_hd__tapvpwrvgnd_1
XPHY_112 VGND VPWR sky130_fd_sc_hd__tapvpwrvgnd_1
XPHY_101 VGND VPWR sky130_fd_sc_hd__tapvpwrvgnd_1
XFILLER_26_28 VGND VGND VPWR VPWR sky130_fd_sc_hd__fill_1
XPHY_3 VGND VGND VPWR VPWR sky130_fd_sc_hd__decap_3
Xmem_right_ipin_0.sky130_fd_sc_hd__dfxtp_1_1_ clkbuf_3_0_0_mem_right_ipin_0.prog_clk/X
+ mux_right_ipin_0.mux_l1_in_2_/S VGND VGND VPWR VPWR mux_right_ipin_0.mux_l2_in_3_/S
+ sky130_fd_sc_hd__dfxtp_1
Xmem_right_ipin_9.sky130_fd_sc_hd__dfxtp_1_3_ clkbuf_3_4_0_mem_right_ipin_0.prog_clk/X
+ mux_right_ipin_9.mux_l3_in_1_/S VGND VGND VPWR VPWR mux_right_ipin_9.mux_l4_in_0_/S
+ sky130_fd_sc_hd__dfxtp_1
XFILLER_5_138 VGND VGND VPWR VPWR sky130_fd_sc_hd__decap_12
XANTENNA_mux_right_ipin_4.mux_l2_in_2__A1 _40_/A VGND VGND VPWR VPWR sky130_fd_sc_hd__diode_2
XANTENNA_mux_right_ipin_14.mux_l2_in_1__A0 _62_/A VGND VGND VPWR VPWR sky130_fd_sc_hd__diode_2
Xmem_right_ipin_11.sky130_fd_sc_hd__dfxtp_1_3_ clkbuf_3_5_0_mem_right_ipin_0.prog_clk/X
+ mux_right_ipin_11.mux_l3_in_1_/S VGND VGND VPWR VPWR mux_right_ipin_11.mux_l4_in_0_/S
+ sky130_fd_sc_hd__dfxtp_1
X_40_ _40_/A VGND VGND VPWR VPWR _40_/X sky130_fd_sc_hd__clkbuf_1
Xmem_right_ipin_6.sky130_fd_sc_hd__dfxtp_1_2_ clkbuf_3_3_0_mem_right_ipin_0.prog_clk/X
+ mux_right_ipin_6.mux_l2_in_3_/S VGND VGND VPWR VPWR mux_right_ipin_6.mux_l3_in_1_/S
+ sky130_fd_sc_hd__dfxtp_1
X_23_ VGND VGND VPWR VPWR _23_/HI _23_/LO sky130_fd_sc_hd__conb_1
Xmux_right_ipin_4.mux_l2_in_3_ _30_/HI _46_/A mux_right_ipin_4.mux_l2_in_3_/S VGND
+ VGND VPWR VPWR mux_right_ipin_4.mux_l2_in_3_/X sky130_fd_sc_hd__mux2_1
XFILLER_20_19 VGND VGND VPWR VPWR sky130_fd_sc_hd__fill_1
XTest_en_E_FTB01 input2/X VGND VGND VPWR VPWR output49/A sky130_fd_sc_hd__clkbuf_1
XANTENNA_mux_right_ipin_1.mux_l2_in_0__A0 _55_/A VGND VGND VPWR VPWR sky130_fd_sc_hd__diode_2
Xmem_right_ipin_3.sky130_fd_sc_hd__dfxtp_1_1_ clkbuf_3_3_0_mem_right_ipin_0.prog_clk/X
+ mux_right_ipin_3.mux_l1_in_2_/S VGND VGND VPWR VPWR mux_right_ipin_3.mux_l2_in_3_/S
+ sky130_fd_sc_hd__dfxtp_1
XPHY_124 VGND VPWR sky130_fd_sc_hd__tapvpwrvgnd_1
XPHY_113 VGND VPWR sky130_fd_sc_hd__tapvpwrvgnd_1
XPHY_102 VGND VPWR sky130_fd_sc_hd__tapvpwrvgnd_1
XPHY_4 VGND VGND VPWR VPWR sky130_fd_sc_hd__decap_3
Xmem_right_ipin_0.sky130_fd_sc_hd__dfxtp_1_0_ clkbuf_3_0_0_mem_right_ipin_0.prog_clk/X
+ input4/X VGND VGND VPWR VPWR mux_right_ipin_0.mux_l1_in_2_/S sky130_fd_sc_hd__dfxtp_1
Xmux_right_ipin_4.mux_l4_in_0_ mux_right_ipin_4.mux_l3_in_1_/X mux_right_ipin_4.mux_l3_in_0_/X
+ mux_right_ipin_4.mux_l4_in_0_/S VGND VGND VPWR VPWR mux_right_ipin_4.mux_l4_in_0_/X
+ sky130_fd_sc_hd__mux2_1
Xmem_right_ipin_14.sky130_fd_sc_hd__dfxtp_1_3_ clkbuf_3_5_0_mem_right_ipin_0.prog_clk/X
+ mux_right_ipin_14.mux_l3_in_1_/S VGND VGND VPWR VPWR mux_right_ipin_14.mux_l4_in_0_/S
+ sky130_fd_sc_hd__dfxtp_1
XFILLER_8_158 VGND VGND VPWR VPWR sky130_fd_sc_hd__fill_1
Xmem_right_ipin_9.sky130_fd_sc_hd__dfxtp_1_2_ clkbuf_3_4_0_mem_right_ipin_0.prog_clk/X
+ mux_right_ipin_9.mux_l2_in_3_/S VGND VGND VPWR VPWR mux_right_ipin_9.mux_l3_in_1_/S
+ sky130_fd_sc_hd__dfxtp_1
Xmux_right_ipin_9.mux_l2_in_3_ _19_/HI _45_/A mux_right_ipin_9.mux_l2_in_3_/S VGND
+ VGND VPWR VPWR mux_right_ipin_9.mux_l2_in_3_/X sky130_fd_sc_hd__mux2_1
XANTENNA_input12_A chany_bottom_in[16] VGND VGND VPWR VPWR sky130_fd_sc_hd__diode_2
XANTENNA_mux_right_ipin_14.mux_l2_in_1__A1 _34_/A VGND VGND VPWR VPWR sky130_fd_sc_hd__diode_2
Xmux_right_ipin_4.mux_l3_in_1_ mux_right_ipin_4.mux_l2_in_3_/X mux_right_ipin_4.mux_l2_in_2_/X
+ mux_right_ipin_4.mux_l3_in_1_/S VGND VGND VPWR VPWR mux_right_ipin_4.mux_l3_in_1_/X
+ sky130_fd_sc_hd__mux2_1
XFILLER_4_10 VGND VGND VPWR VPWR sky130_fd_sc_hd__fill_1
Xmem_right_ipin_11.sky130_fd_sc_hd__dfxtp_1_2_ clkbuf_3_7_0_mem_right_ipin_0.prog_clk/X
+ mux_right_ipin_11.mux_l2_in_3_/S VGND VGND VPWR VPWR mux_right_ipin_11.mux_l3_in_1_/S
+ sky130_fd_sc_hd__dfxtp_1
XANTENNA_mux_right_ipin_8.mux_l1_in_2__A0 _40_/A VGND VGND VPWR VPWR sky130_fd_sc_hd__diode_2
XANTENNA_input4_A ccff_head VGND VGND VPWR VPWR sky130_fd_sc_hd__diode_2
Xmem_right_ipin_6.sky130_fd_sc_hd__dfxtp_1_1_ clkbuf_3_3_0_mem_right_ipin_0.prog_clk/X
+ mux_right_ipin_6.mux_l1_in_0_/S VGND VGND VPWR VPWR mux_right_ipin_6.mux_l2_in_3_/S
+ sky130_fd_sc_hd__dfxtp_1
XANTENNA_mux_right_ipin_12.mux_l2_in_3__A1 _48_/A VGND VGND VPWR VPWR sky130_fd_sc_hd__diode_2
XANTENNA_mux_right_ipin_11.mux_l1_in_0__A0 _33_/A VGND VGND VPWR VPWR sky130_fd_sc_hd__diode_2
X_22_ VGND VGND VPWR VPWR _22_/HI _22_/LO sky130_fd_sc_hd__conb_1
Xmux_right_ipin_4.mux_l2_in_2_ _66_/A _40_/A mux_right_ipin_4.mux_l2_in_3_/S VGND
+ VGND VPWR VPWR mux_right_ipin_4.mux_l2_in_2_/X sky130_fd_sc_hd__mux2_1
Xmux_right_ipin_9.mux_l4_in_0_ mux_right_ipin_9.mux_l3_in_1_/X mux_right_ipin_9.mux_l3_in_0_/X
+ mux_right_ipin_9.mux_l4_in_0_/S VGND VGND VPWR VPWR mux_right_ipin_9.mux_l4_in_0_/X
+ sky130_fd_sc_hd__mux2_1
Xmem_right_ipin_3.sky130_fd_sc_hd__dfxtp_1_0_ clkbuf_3_0_0_mem_right_ipin_0.prog_clk/X
+ mux_right_ipin_2.mux_l4_in_0_/S VGND VGND VPWR VPWR mux_right_ipin_3.mux_l1_in_2_/S
+ sky130_fd_sc_hd__dfxtp_1
XPHY_125 VGND VPWR sky130_fd_sc_hd__tapvpwrvgnd_1
XPHY_114 VGND VPWR sky130_fd_sc_hd__tapvpwrvgnd_1
XPHY_103 VGND VPWR sky130_fd_sc_hd__tapvpwrvgnd_1
XANTENNA_input42_A chany_top_in[7] VGND VGND VPWR VPWR sky130_fd_sc_hd__diode_2
Xmux_right_ipin_9.mux_l3_in_1_ mux_right_ipin_9.mux_l2_in_3_/X mux_right_ipin_9.mux_l2_in_2_/X
+ mux_right_ipin_9.mux_l3_in_1_/S VGND VGND VPWR VPWR mux_right_ipin_9.mux_l3_in_1_/X
+ sky130_fd_sc_hd__mux2_1
XPHY_5 VGND VGND VPWR VPWR sky130_fd_sc_hd__decap_3