* NGSPICE file created from cby_1__1_.ext - technology: sky130A

* Black-box entry subcircuit for sky130_fd_sc_hd__fill_1 abstract view
.subckt sky130_fd_sc_hd__fill_1 VGND VNB VPB VPWR
.ends

* Black-box entry subcircuit for sky130_fd_sc_hd__diode_2 abstract view
.subckt sky130_fd_sc_hd__diode_2 DIODE VGND VNB VPB VPWR
.ends

* Black-box entry subcircuit for sky130_fd_sc_hd__mux2_1 abstract view
.subckt sky130_fd_sc_hd__mux2_1 A0 A1 S VGND VNB VPB VPWR X
.ends

* Black-box entry subcircuit for sky130_fd_sc_hd__fill_2 abstract view
.subckt sky130_fd_sc_hd__fill_2 VGND VNB VPB VPWR
.ends

* Black-box entry subcircuit for sky130_fd_sc_hd__clkbuf_1 abstract view
.subckt sky130_fd_sc_hd__clkbuf_1 A VGND VNB VPB VPWR X
.ends

* Black-box entry subcircuit for sky130_fd_sc_hd__dfxtp_1 abstract view
.subckt sky130_fd_sc_hd__dfxtp_1 CLK D VGND VNB VPB VPWR Q
.ends

* Black-box entry subcircuit for sky130_ef_sc_hd__decap_12 abstract view
.subckt sky130_ef_sc_hd__decap_12 VGND VPWR VPB VNB
.ends

* Black-box entry subcircuit for sky130_fd_sc_hd__decap_3 abstract view
.subckt sky130_fd_sc_hd__decap_3 VGND VNB VPB VPWR
.ends

* Black-box entry subcircuit for sky130_fd_sc_hd__decap_6 abstract view
.subckt sky130_fd_sc_hd__decap_6 VGND VNB VPB VPWR
.ends

* Black-box entry subcircuit for sky130_fd_sc_hd__buf_2 abstract view
.subckt sky130_fd_sc_hd__buf_2 A VGND VNB VPB VPWR X
.ends

* Black-box entry subcircuit for sky130_fd_sc_hd__conb_1 abstract view
.subckt sky130_fd_sc_hd__conb_1 VGND VNB VPB VPWR HI LO
.ends

* Black-box entry subcircuit for sky130_fd_sc_hd__tapvpwrvgnd_1 abstract view
.subckt sky130_fd_sc_hd__tapvpwrvgnd_1 VGND VPWR
.ends

* Black-box entry subcircuit for sky130_fd_sc_hd__decap_8 abstract view
.subckt sky130_fd_sc_hd__decap_8 VGND VNB VPB VPWR
.ends

* Black-box entry subcircuit for sky130_fd_sc_hd__decap_4 abstract view
.subckt sky130_fd_sc_hd__decap_4 VGND VNB VPB VPWR
.ends

* Black-box entry subcircuit for sky130_fd_sc_hd__buf_8 abstract view
.subckt sky130_fd_sc_hd__buf_8 A VGND VNB VPB VPWR X
.ends

* Black-box entry subcircuit for sky130_fd_sc_hd__clkbuf_2 abstract view
.subckt sky130_fd_sc_hd__clkbuf_2 A VGND VNB VPB VPWR X
.ends

* Black-box entry subcircuit for sky130_fd_sc_hd__dlymetal6s2s_1 abstract view
.subckt sky130_fd_sc_hd__dlymetal6s2s_1 A VGND VNB VPB VPWR X
.ends

* Black-box entry subcircuit for sky130_fd_sc_hd__dfxtp_2 abstract view
.subckt sky130_fd_sc_hd__dfxtp_2 CLK D VGND VNB VPB VPWR Q
.ends

* Black-box entry subcircuit for sky130_fd_sc_hd__buf_4 abstract view
.subckt sky130_fd_sc_hd__buf_4 A VGND VNB VPB VPWR X
.ends

.subckt cby_1__1_ Test_en_E_in Test_en_E_out Test_en_N_out Test_en_S_in Test_en_W_in
+ Test_en_W_out VGND VPWR ccff_head ccff_tail chany_bottom_in[0] chany_bottom_in[10]
+ chany_bottom_in[11] chany_bottom_in[12] chany_bottom_in[13] chany_bottom_in[14]
+ chany_bottom_in[15] chany_bottom_in[16] chany_bottom_in[17] chany_bottom_in[18]
+ chany_bottom_in[19] chany_bottom_in[1] chany_bottom_in[2] chany_bottom_in[3] chany_bottom_in[4]
+ chany_bottom_in[5] chany_bottom_in[6] chany_bottom_in[7] chany_bottom_in[8] chany_bottom_in[9]
+ chany_bottom_out[0] chany_bottom_out[10] chany_bottom_out[11] chany_bottom_out[12]
+ chany_bottom_out[13] chany_bottom_out[14] chany_bottom_out[15] chany_bottom_out[16]
+ chany_bottom_out[17] chany_bottom_out[18] chany_bottom_out[19] chany_bottom_out[1]
+ chany_bottom_out[2] chany_bottom_out[3] chany_bottom_out[4] chany_bottom_out[5]
+ chany_bottom_out[6] chany_bottom_out[7] chany_bottom_out[8] chany_bottom_out[9]
+ chany_top_in[0] chany_top_in[10] chany_top_in[11] chany_top_in[12] chany_top_in[13]
+ chany_top_in[14] chany_top_in[15] chany_top_in[16] chany_top_in[17] chany_top_in[18]
+ chany_top_in[19] chany_top_in[1] chany_top_in[2] chany_top_in[3] chany_top_in[4]
+ chany_top_in[5] chany_top_in[6] chany_top_in[7] chany_top_in[8] chany_top_in[9]
+ chany_top_out[0] chany_top_out[10] chany_top_out[11] chany_top_out[12] chany_top_out[13]
+ chany_top_out[14] chany_top_out[15] chany_top_out[16] chany_top_out[17] chany_top_out[18]
+ chany_top_out[19] chany_top_out[1] chany_top_out[2] chany_top_out[3] chany_top_out[4]
+ chany_top_out[5] chany_top_out[6] chany_top_out[7] chany_top_out[8] chany_top_out[9]
+ clk_2_N_out clk_2_S_in clk_2_S_out clk_3_N_out clk_3_S_in clk_3_S_out left_grid_pin_16_
+ left_grid_pin_17_ left_grid_pin_18_ left_grid_pin_19_ left_grid_pin_20_ left_grid_pin_21_
+ left_grid_pin_22_ left_grid_pin_23_ left_grid_pin_24_ left_grid_pin_25_ left_grid_pin_26_
+ left_grid_pin_27_ left_grid_pin_28_ left_grid_pin_29_ left_grid_pin_30_ left_grid_pin_31_
+ prog_clk_0_N_out prog_clk_0_S_out prog_clk_0_W_in prog_clk_2_N_out prog_clk_2_S_in
+ prog_clk_2_S_out prog_clk_3_N_out prog_clk_3_S_in prog_clk_3_S_out
XFILLER_13_111 VGND VGND VPWR VPWR sky130_fd_sc_hd__fill_1
XANTENNA_mux_right_ipin_3.mux_l2_in_0__S mux_right_ipin_3.mux_l2_in_3_/S VGND VGND
+ VPWR VPWR sky130_fd_sc_hd__diode_2
Xmux_right_ipin_11.mux_l2_in_0_ mux_right_ipin_11.mux_l1_in_1_/X mux_right_ipin_11.mux_l1_in_0_/X
+ mux_right_ipin_11.mux_l2_in_3_/S VGND VGND VPWR VPWR mux_right_ipin_11.mux_l2_in_0_/X
+ sky130_fd_sc_hd__mux2_1
XFILLER_12_65 VGND VGND VPWR VPWR sky130_fd_sc_hd__fill_1
XFILLER_12_10 VGND VGND VPWR VPWR sky130_fd_sc_hd__fill_2
X_66_ _66_/A VGND VGND VPWR VPWR _66_/X sky130_fd_sc_hd__clkbuf_1
Xmem_right_ipin_15.sky130_fd_sc_hd__dfxtp_1_1_ prog_clk_0_FTB00/X mux_right_ipin_15.mux_l1_in_2_/S
+ VGND VGND VPWR VPWR mux_right_ipin_15.mux_l2_in_3_/S sky130_fd_sc_hd__dfxtp_1
Xmux_right_ipin_11.mux_l1_in_1_ input36/X repeater127/X mux_right_ipin_11.mux_l1_in_2_/S
+ VGND VGND VPWR VPWR mux_right_ipin_11.mux_l1_in_1_/X sky130_fd_sc_hd__mux2_1
X_49_ _49_/A VGND VGND VPWR VPWR _49_/X sky130_fd_sc_hd__clkbuf_1
XFILLER_18_97 VGND VPWR VPWR VGND sky130_ef_sc_hd__decap_12
XFILLER_18_31 VGND VGND VPWR VPWR sky130_fd_sc_hd__decap_3
Xmem_right_ipin_12.sky130_fd_sc_hd__dfxtp_1_0_ prog_clk_0_FTB00/X mux_right_ipin_11.mux_l4_in_0_/S
+ VGND VGND VPWR VPWR mux_right_ipin_12.mux_l1_in_2_/S sky130_fd_sc_hd__dfxtp_1
XFILLER_20_21 VGND VGND VPWR VPWR sky130_fd_sc_hd__decap_6
XANTENNA_input18_A chany_bottom_in[5] VGND VGND VPWR VPWR sky130_fd_sc_hd__diode_2
XANTENNA_mem_right_ipin_10.sky130_fd_sc_hd__dfxtp_1_1__CLK prog_clk_0_FTB00/X VGND
+ VGND VPWR VPWR sky130_fd_sc_hd__diode_2
XFILLER_15_54 VGND VGND VPWR VPWR sky130_fd_sc_hd__fill_2
XANTENNA_mux_right_ipin_3.mux_l2_in_3__S mux_right_ipin_3.mux_l2_in_3_/S VGND VGND
+ VPWR VPWR sky130_fd_sc_hd__diode_2
Xoutput75 _65_/X VGND VGND VPWR VPWR chany_top_out[13] sky130_fd_sc_hd__buf_2
Xoutput86 _57_/X VGND VGND VPWR VPWR chany_top_out[5] sky130_fd_sc_hd__buf_2
Xmux_right_ipin_11.mux_l2_in_3__141 VGND VGND VPWR VPWR mux_right_ipin_11.mux_l2_in_3_/A0
+ mux_right_ipin_11.mux_l2_in_3__141/LO sky130_fd_sc_hd__conb_1
Xoutput53 _43_/X VGND VGND VPWR VPWR chany_bottom_out[11] sky130_fd_sc_hd__buf_2
Xoutput97 output97/A VGND VGND VPWR VPWR left_grid_pin_18_ sky130_fd_sc_hd__buf_2
Xoutput64 _35_/X VGND VGND VPWR VPWR chany_bottom_out[3] sky130_fd_sc_hd__buf_2
XTAP_123 VGND VPWR sky130_fd_sc_hd__tapvpwrvgnd_1
XTAP_112 VGND VPWR sky130_fd_sc_hd__tapvpwrvgnd_1
XANTENNA_mem_right_ipin_0.sky130_fd_sc_hd__dfxtp_1_2__CLK prog_clk_0_FTB00/X VGND
+ VGND VPWR VPWR sky130_fd_sc_hd__diode_2
XTAP_101 VGND VPWR sky130_fd_sc_hd__tapvpwrvgnd_1
XANTENNA_mem_right_ipin_13.sky130_fd_sc_hd__dfxtp_1_2__CLK prog_clk_0_FTB00/X VGND
+ VGND VPWR VPWR sky130_fd_sc_hd__diode_2
XFILLER_13_145 VGND VGND VPWR VPWR sky130_fd_sc_hd__fill_1
XFILLER_9_105 VGND VGND VPWR VPWR sky130_fd_sc_hd__fill_1
XANTENNA_mem_right_ipin_3.sky130_fd_sc_hd__dfxtp_1_3__CLK prog_clk_0_FTB00/X VGND
+ VGND VPWR VPWR sky130_fd_sc_hd__diode_2
X_65_ _65_/A VGND VGND VPWR VPWR _65_/X sky130_fd_sc_hd__clkbuf_1
XANTENNA_mem_right_ipin_3.sky130_fd_sc_hd__dfxtp_1_1__D mux_right_ipin_3.mux_l1_in_2_/S
+ VGND VGND VPWR VPWR sky130_fd_sc_hd__diode_2
Xmux_right_ipin_8.sky130_fd_sc_hd__buf_4_0_ mux_right_ipin_8.mux_l4_in_0_/X VGND VGND
+ VPWR VPWR output103/A sky130_fd_sc_hd__clkbuf_1
Xmem_right_ipin_15.sky130_fd_sc_hd__dfxtp_1_0_ prog_clk_0_FTB00/X mux_right_ipin_14.mux_l4_in_0_/S
+ VGND VGND VPWR VPWR mux_right_ipin_15.mux_l1_in_2_/S sky130_fd_sc_hd__dfxtp_1
Xmux_right_ipin_11.mux_l1_in_0_ input34/X repeater131/X mux_right_ipin_11.mux_l1_in_2_/S
+ VGND VGND VPWR VPWR mux_right_ipin_11.mux_l1_in_0_/X sky130_fd_sc_hd__mux2_1
X_48_ _48_/A VGND VGND VPWR VPWR _48_/X sky130_fd_sc_hd__clkbuf_1
XFILLER_18_65 VGND VGND VPWR VPWR sky130_fd_sc_hd__fill_1
XANTENNA_mem_right_ipin_7.sky130_fd_sc_hd__dfxtp_1_0__CLK prog_clk_0_FTB00/X VGND
+ VGND VPWR VPWR sky130_fd_sc_hd__diode_2
XFILLER_6_24 VGND VGND VPWR VPWR sky130_fd_sc_hd__fill_1
Xoutput76 _66_/X VGND VGND VPWR VPWR chany_top_out[14] sky130_fd_sc_hd__buf_2
Xoutput87 _58_/X VGND VGND VPWR VPWR chany_top_out[6] sky130_fd_sc_hd__buf_2
XANTENNA_input30_A chany_top_in[16] VGND VGND VPWR VPWR sky130_fd_sc_hd__diode_2
XFILLER_16_121 VGND VGND VPWR VPWR sky130_fd_sc_hd__fill_1
Xoutput54 _44_/X VGND VGND VPWR VPWR chany_bottom_out[12] sky130_fd_sc_hd__buf_2
Xoutput65 _36_/X VGND VGND VPWR VPWR chany_bottom_out[4] sky130_fd_sc_hd__buf_2
Xoutput98 output98/A VGND VGND VPWR VPWR left_grid_pin_19_ sky130_fd_sc_hd__buf_2
XTAP_124 VGND VPWR sky130_fd_sc_hd__tapvpwrvgnd_1
XTAP_113 VGND VPWR sky130_fd_sc_hd__tapvpwrvgnd_1
XTAP_102 VGND VPWR sky130_fd_sc_hd__tapvpwrvgnd_1
XFILLER_13_113 VGND VGND VPWR VPWR sky130_fd_sc_hd__fill_1
XANTENNA_prog_clk_0_S_FTB01_A prog_clk_0_W_in VGND VGND VPWR VPWR sky130_fd_sc_hd__diode_2
X_64_ _64_/A VGND VGND VPWR VPWR _64_/X sky130_fd_sc_hd__clkbuf_1
Xmux_right_ipin_3.mux_l2_in_3_ mux_right_ipin_3.mux_l2_in_3_/A0 _51_/A mux_right_ipin_3.mux_l2_in_3_/S
+ VGND VGND VPWR VPWR mux_right_ipin_3.mux_l2_in_3_/X sky130_fd_sc_hd__mux2_1
XANTENNA_mux_right_ipin_3.mux_l2_in_2__A1 _45_/A VGND VGND VPWR VPWR sky130_fd_sc_hd__diode_2
XFILLER_9_57 VGND VGND VPWR VPWR sky130_fd_sc_hd__decap_8
X_47_ _47_/A VGND VGND VPWR VPWR _47_/X sky130_fd_sc_hd__clkbuf_1
XANTENNA_mux_right_ipin_13.mux_l2_in_1__A0 _61_/A VGND VGND VPWR VPWR sky130_fd_sc_hd__diode_2
XFILLER_20_67 VGND VGND VPWR VPWR sky130_fd_sc_hd__fill_1
Xmux_right_ipin_3.mux_l4_in_0_ mux_right_ipin_3.mux_l3_in_1_/X mux_right_ipin_3.mux_l3_in_0_/X
+ mux_right_ipin_3.mux_l4_in_0_/S VGND VGND VPWR VPWR mux_right_ipin_3.mux_l4_in_0_/X
+ sky130_fd_sc_hd__mux2_1
XANTENNA_mux_right_ipin_4.mux_l2_in_1__S mux_right_ipin_4.mux_l2_in_3_/S VGND VGND
+ VPWR VPWR sky130_fd_sc_hd__diode_2
XANTENNA_input23_A chany_top_in[0] VGND VGND VPWR VPWR sky130_fd_sc_hd__diode_2
Xoutput77 _67_/X VGND VGND VPWR VPWR chany_top_out[15] sky130_fd_sc_hd__buf_2
Xoutput88 _59_/X VGND VGND VPWR VPWR chany_top_out[7] sky130_fd_sc_hd__buf_2
XFILLER_15_23 VGND VGND VPWR VPWR sky130_fd_sc_hd__decap_4
Xoutput66 _37_/X VGND VGND VPWR VPWR chany_bottom_out[5] sky130_fd_sc_hd__buf_2
Xoutput55 _45_/X VGND VGND VPWR VPWR chany_bottom_out[13] sky130_fd_sc_hd__buf_2
Xoutput99 output99/A VGND VGND VPWR VPWR left_grid_pin_20_ sky130_fd_sc_hd__buf_2
XTAP_125 VGND VPWR sky130_fd_sc_hd__tapvpwrvgnd_1
XTAP_114 VGND VPWR sky130_fd_sc_hd__tapvpwrvgnd_1
XTAP_103 VGND VPWR sky130_fd_sc_hd__tapvpwrvgnd_1
Xmux_right_ipin_8.mux_l2_in_3_ mux_right_ipin_8.mux_l2_in_3_/A0 _50_/A mux_right_ipin_8.mux_l2_in_3_/S
+ VGND VGND VPWR VPWR mux_right_ipin_8.mux_l2_in_3_/X sky130_fd_sc_hd__mux2_1
XFILLER_13_158 VGND VGND VPWR VPWR sky130_fd_sc_hd__fill_1
Xmux_right_ipin_3.mux_l3_in_1_ mux_right_ipin_3.mux_l2_in_3_/X mux_right_ipin_3.mux_l2_in_2_/X
+ mux_right_ipin_3.mux_l3_in_1_/S VGND VGND VPWR VPWR mux_right_ipin_3.mux_l3_in_1_/X
+ sky130_fd_sc_hd__mux2_1
XANTENNA_mux_right_ipin_3.mux_l3_in_1__S mux_right_ipin_3.mux_l3_in_1_/S VGND VGND
+ VPWR VPWR sky130_fd_sc_hd__diode_2
XFILLER_5_7 VGND VGND VPWR VPWR sky130_fd_sc_hd__fill_1
XFILLER_10_106 VGND VGND VPWR VPWR sky130_fd_sc_hd__fill_1
X_63_ _63_/A VGND VGND VPWR VPWR _63_/X sky130_fd_sc_hd__clkbuf_1
Xmux_right_ipin_3.mux_l2_in_2_ _71_/A _45_/A mux_right_ipin_3.mux_l2_in_3_/S VGND
+ VGND VPWR VPWR mux_right_ipin_3.mux_l2_in_2_/X sky130_fd_sc_hd__mux2_1
Xprog_clk_0_FTB00 prog_clk_0_W_in VGND VGND VPWR VPWR prog_clk_0_FTB00/X sky130_fd_sc_hd__buf_8
Xmux_right_ipin_8.mux_l4_in_0_ mux_right_ipin_8.mux_l3_in_1_/X mux_right_ipin_8.mux_l3_in_0_/X
+ mux_right_ipin_8.mux_l4_in_0_/S VGND VGND VPWR VPWR mux_right_ipin_8.mux_l4_in_0_/X
+ sky130_fd_sc_hd__mux2_1
X_46_ _46_/A VGND VGND VPWR VPWR _46_/X sky130_fd_sc_hd__clkbuf_1
XANTENNA_mux_right_ipin_7.mux_l1_in_2__A0 _39_/A VGND VGND VPWR VPWR sky130_fd_sc_hd__diode_2
XANTENNA_mem_right_ipin_11.sky130_fd_sc_hd__dfxtp_1_0__CLK prog_clk_0_FTB00/X VGND
+ VGND VPWR VPWR sky130_fd_sc_hd__diode_2
Xmux_right_ipin_8.mux_l3_in_1_ mux_right_ipin_8.mux_l2_in_3_/X mux_right_ipin_8.mux_l2_in_2_/X
+ mux_right_ipin_8.mux_l3_in_1_/S VGND VGND VPWR VPWR mux_right_ipin_8.mux_l3_in_1_/X
+ sky130_fd_sc_hd__mux2_1
Xmux_right_ipin_1.sky130_fd_sc_hd__buf_4_0_ mux_right_ipin_1.mux_l4_in_0_/X VGND VGND
+ VPWR VPWR output96/A sky130_fd_sc_hd__clkbuf_1
XFILLER_1_70 VGND VGND VPWR VPWR sky130_fd_sc_hd__fill_1
Xprog_clk_3_N_FTB01 input46/X VGND VGND VPWR VPWR output115/A sky130_fd_sc_hd__clkbuf_1
XFILLER_19_153 VGND VGND VPWR VPWR sky130_fd_sc_hd__fill_1
XANTENNA_mux_right_ipin_7.mux_l2_in_1__A0 _63_/A VGND VGND VPWR VPWR sky130_fd_sc_hd__diode_2
Xoutput78 _68_/X VGND VGND VPWR VPWR chany_top_out[16] sky130_fd_sc_hd__buf_2
Xoutput89 _60_/X VGND VGND VPWR VPWR chany_top_out[8] sky130_fd_sc_hd__buf_2
XANTENNA_mem_right_ipin_1.sky130_fd_sc_hd__dfxtp_1_1__CLK prog_clk_0_FTB00/X VGND
+ VGND VPWR VPWR sky130_fd_sc_hd__diode_2
XFILLER_15_57 VGND VGND VPWR VPWR sky130_fd_sc_hd__decap_6
XFILLER_15_46 VGND VGND VPWR VPWR sky130_fd_sc_hd__decap_8
XANTENNA_mem_right_ipin_14.sky130_fd_sc_hd__dfxtp_1_1__CLK prog_clk_0_FTB00/X VGND
+ VGND VPWR VPWR sky130_fd_sc_hd__diode_2
Xoutput56 _46_/X VGND VGND VPWR VPWR chany_bottom_out[14] sky130_fd_sc_hd__buf_2
Xoutput67 _38_/X VGND VGND VPWR VPWR chany_bottom_out[6] sky130_fd_sc_hd__buf_2
XTAP_126 VGND VPWR sky130_fd_sc_hd__tapvpwrvgnd_1
XTAP_115 VGND VPWR sky130_fd_sc_hd__tapvpwrvgnd_1
XTAP_104 VGND VPWR sky130_fd_sc_hd__tapvpwrvgnd_1
Xmux_right_ipin_8.mux_l2_in_2_ _70_/A _44_/A mux_right_ipin_8.mux_l2_in_3_/S VGND
+ VGND VPWR VPWR mux_right_ipin_8.mux_l2_in_2_/X sky130_fd_sc_hd__mux2_1
XFILLER_11_3 VGND VGND VPWR VPWR sky130_fd_sc_hd__fill_1
XANTENNA_input16_A chany_bottom_in[3] VGND VGND VPWR VPWR sky130_fd_sc_hd__diode_2
XFILLER_22_148 VGND VGND VPWR VPWR sky130_fd_sc_hd__fill_1
XANTENNA_input8_A chany_bottom_in[14] VGND VGND VPWR VPWR sky130_fd_sc_hd__diode_2
Xmux_right_ipin_3.mux_l3_in_0_ mux_right_ipin_3.mux_l2_in_1_/X mux_right_ipin_3.mux_l2_in_0_/X
+ mux_right_ipin_3.mux_l3_in_1_/S VGND VGND VPWR VPWR mux_right_ipin_3.mux_l3_in_0_/X
+ sky130_fd_sc_hd__mux2_1
XANTENNA_mem_right_ipin_4.sky130_fd_sc_hd__dfxtp_1_2__CLK prog_clk_0_FTB00/X VGND
+ VGND VPWR VPWR sky130_fd_sc_hd__diode_2
X_62_ _62_/A VGND VGND VPWR VPWR _62_/X sky130_fd_sc_hd__clkbuf_1
Xmux_right_ipin_3.mux_l2_in_1_ _65_/A mux_right_ipin_3.mux_l1_in_2_/X mux_right_ipin_3.mux_l2_in_3_/S
+ VGND VGND VPWR VPWR mux_right_ipin_3.mux_l2_in_1_/X sky130_fd_sc_hd__mux2_1
XFILLER_23_57 VGND VGND VPWR VPWR sky130_fd_sc_hd__decap_6
XANTENNA_mem_right_ipin_7.sky130_fd_sc_hd__dfxtp_1_3__CLK prog_clk_0_FTB00/X VGND
+ VGND VPWR VPWR sky130_fd_sc_hd__diode_2
XFILLER_18_57 VGND VGND VPWR VPWR sky130_fd_sc_hd__decap_8
X_45_ _45_/A VGND VGND VPWR VPWR _45_/X sky130_fd_sc_hd__clkbuf_1
Xmux_right_ipin_12.mux_l2_in_3_ mux_right_ipin_12.mux_l2_in_3_/A0 _48_/A mux_right_ipin_12.mux_l2_in_3_/S
+ VGND VGND VPWR VPWR mux_right_ipin_12.mux_l2_in_3_/X sky130_fd_sc_hd__mux2_1
XANTENNA_mux_right_ipin_7.mux_l1_in_2__A1 _59_/A VGND VGND VPWR VPWR sky130_fd_sc_hd__diode_2
XANTENNA_input46_A prog_clk_3_S_in VGND VGND VPWR VPWR sky130_fd_sc_hd__diode_2
Xmux_right_ipin_3.mux_l1_in_2_ _39_/A _59_/A mux_right_ipin_3.mux_l1_in_2_/S VGND
+ VGND VPWR VPWR mux_right_ipin_3.mux_l1_in_2_/X sky130_fd_sc_hd__mux2_1
Xmux_right_ipin_8.mux_l3_in_0_ mux_right_ipin_8.mux_l2_in_1_/X mux_right_ipin_8.mux_l2_in_0_/X
+ mux_right_ipin_8.mux_l3_in_1_/S VGND VGND VPWR VPWR mux_right_ipin_8.mux_l3_in_0_/X
+ sky130_fd_sc_hd__mux2_1
XFILLER_19_121 VGND VGND VPWR VPWR sky130_fd_sc_hd__fill_1
XFILLER_25_102 VGND VGND VPWR VPWR sky130_fd_sc_hd__fill_1
Xoutput57 _47_/X VGND VGND VPWR VPWR chany_bottom_out[15] sky130_fd_sc_hd__buf_2
Xoutput79 _69_/X VGND VGND VPWR VPWR chany_top_out[17] sky130_fd_sc_hd__buf_2
XTAP_127 VGND VPWR sky130_fd_sc_hd__tapvpwrvgnd_1
XTAP_116 VGND VPWR sky130_fd_sc_hd__tapvpwrvgnd_1
XTAP_105 VGND VPWR sky130_fd_sc_hd__tapvpwrvgnd_1
XFILLER_16_146 VGND VGND VPWR VPWR sky130_fd_sc_hd__decap_3
Xmux_right_ipin_8.mux_l2_in_1_ _64_/A mux_right_ipin_8.mux_l1_in_2_/X mux_right_ipin_8.mux_l2_in_3_/S
+ VGND VGND VPWR VPWR mux_right_ipin_8.mux_l2_in_1_/X sky130_fd_sc_hd__mux2_1
Xoutput68 _39_/X VGND VGND VPWR VPWR chany_bottom_out[7] sky130_fd_sc_hd__buf_2
Xmux_right_ipin_5.mux_l2_in_3__133 VGND VGND VPWR VPWR mux_right_ipin_5.mux_l2_in_3_/A0
+ mux_right_ipin_5.mux_l2_in_3__133/LO sky130_fd_sc_hd__conb_1
Xmux_right_ipin_12.mux_l4_in_0_ mux_right_ipin_12.mux_l3_in_1_/X mux_right_ipin_12.mux_l3_in_0_/X
+ mux_right_ipin_12.mux_l4_in_0_/S VGND VGND VPWR VPWR mux_right_ipin_12.mux_l4_in_0_/X
+ sky130_fd_sc_hd__mux2_1
XFILLER_13_105 VGND VGND VPWR VPWR sky130_fd_sc_hd__decap_6
XANTENNA_mux_right_ipin_5.mux_l2_in_3__A1 _49_/A VGND VGND VPWR VPWR sky130_fd_sc_hd__diode_2
Xmux_right_ipin_8.mux_l1_in_2_ _40_/A _60_/A mux_right_ipin_8.mux_l1_in_2_/S VGND
+ VGND VPWR VPWR mux_right_ipin_8.mux_l1_in_2_/X sky130_fd_sc_hd__mux2_1
X_61_ _61_/A VGND VGND VPWR VPWR _61_/X sky130_fd_sc_hd__clkbuf_1
Xmux_right_ipin_12.mux_l3_in_1_ mux_right_ipin_12.mux_l2_in_3_/X mux_right_ipin_12.mux_l2_in_2_/X
+ mux_right_ipin_12.mux_l3_in_1_/S VGND VGND VPWR VPWR mux_right_ipin_12.mux_l3_in_1_/X
+ sky130_fd_sc_hd__mux2_1
Xmux_right_ipin_3.mux_l2_in_0_ mux_right_ipin_3.mux_l1_in_1_/X mux_right_ipin_3.mux_l1_in_0_/X
+ mux_right_ipin_3.mux_l2_in_3_/S VGND VGND VPWR VPWR mux_right_ipin_3.mux_l2_in_0_/X
+ sky130_fd_sc_hd__mux2_1
XFILLER_23_47 VGND VGND VPWR VPWR sky130_fd_sc_hd__decap_3
X_44_ _44_/A VGND VGND VPWR VPWR _44_/X sky130_fd_sc_hd__clkbuf_1
Xmux_right_ipin_12.mux_l2_in_2_ _68_/A _44_/A mux_right_ipin_12.mux_l2_in_3_/S VGND
+ VGND VPWR VPWR mux_right_ipin_12.mux_l2_in_2_/X sky130_fd_sc_hd__mux2_1
XANTENNA_input39_A chany_top_in[6] VGND VGND VPWR VPWR sky130_fd_sc_hd__diode_2
Xmux_right_ipin_3.mux_l1_in_1_ repeater118/X repeater128/X mux_right_ipin_3.mux_l1_in_2_/S
+ VGND VGND VPWR VPWR mux_right_ipin_3.mux_l1_in_1_/X sky130_fd_sc_hd__mux2_1
XANTENNA_mux_right_ipin_2.mux_l2_in_1__A0 _58_/A VGND VGND VPWR VPWR sky130_fd_sc_hd__diode_2
XFILLER_19_111 VGND VGND VPWR VPWR sky130_fd_sc_hd__fill_1
XFILLER_20_9 VGND VPWR VPWR VGND sky130_ef_sc_hd__decap_12
XFILLER_25_125 VGND VGND VPWR VPWR sky130_fd_sc_hd__fill_1
XFILLER_16_158 VGND VGND VPWR VPWR sky130_fd_sc_hd__fill_1
Xoutput47 output47/A VGND VGND VPWR VPWR Test_en_E_out sky130_fd_sc_hd__buf_2
Xoutput58 _48_/X VGND VGND VPWR VPWR chany_bottom_out[16] sky130_fd_sc_hd__buf_2
Xoutput69 _40_/X VGND VGND VPWR VPWR chany_bottom_out[8] sky130_fd_sc_hd__buf_2
Xmux_right_ipin_8.mux_l2_in_0_ mux_right_ipin_8.mux_l1_in_1_/X mux_right_ipin_8.mux_l1_in_0_/X
+ mux_right_ipin_8.mux_l2_in_3_/S VGND VGND VPWR VPWR mux_right_ipin_8.mux_l2_in_0_/X
+ sky130_fd_sc_hd__mux2_1
XTAP_128 VGND VPWR sky130_fd_sc_hd__tapvpwrvgnd_1
XTAP_117 VGND VPWR sky130_fd_sc_hd__tapvpwrvgnd_1
XTAP_106 VGND VPWR sky130_fd_sc_hd__tapvpwrvgnd_1
XPHY_0 VGND VGND VPWR VPWR sky130_fd_sc_hd__decap_3
Xrepeater130 input15/X VGND VGND VPWR VPWR repeater130/X sky130_fd_sc_hd__clkbuf_2
XANTENNA_input21_A chany_bottom_in[8] VGND VGND VPWR VPWR sky130_fd_sc_hd__diode_2
XFILLER_12_49 VGND VPWR VPWR VGND sky130_ef_sc_hd__decap_12
Xmux_right_ipin_8.mux_l1_in_1_ repeater120/X repeater130/X mux_right_ipin_8.mux_l1_in_2_/S
+ VGND VGND VPWR VPWR mux_right_ipin_8.mux_l1_in_1_/X sky130_fd_sc_hd__mux2_1
X_60_ _60_/A VGND VGND VPWR VPWR _60_/X sky130_fd_sc_hd__clkbuf_1
Xmux_right_ipin_12.mux_l3_in_0_ mux_right_ipin_12.mux_l2_in_1_/X mux_right_ipin_12.mux_l2_in_0_/X
+ mux_right_ipin_12.mux_l3_in_1_/S VGND VGND VPWR VPWR mux_right_ipin_12.mux_l3_in_0_/X
+ sky130_fd_sc_hd__mux2_1
XANTENNA__42__A _42_/A VGND VGND VPWR VPWR sky130_fd_sc_hd__diode_2
XANTENNA_mem_right_ipin_11.sky130_fd_sc_hd__dfxtp_1_3__CLK prog_clk_0_FTB00/X VGND
+ VGND VPWR VPWR sky130_fd_sc_hd__diode_2
XFILLER_13_81 VGND VGND VPWR VPWR sky130_fd_sc_hd__fill_1
XANTENNA__37__A _37_/A VGND VGND VPWR VPWR sky130_fd_sc_hd__diode_2
X_43_ _43_/A VGND VGND VPWR VPWR _43_/X sky130_fd_sc_hd__clkbuf_1
XANTENNA_mux_right_ipin_9.mux_l2_in_2__A0 _65_/A VGND VGND VPWR VPWR sky130_fd_sc_hd__diode_2
Xmux_right_ipin_12.mux_l2_in_1_ _64_/A mux_right_ipin_12.mux_l1_in_2_/X mux_right_ipin_12.mux_l2_in_3_/S
+ VGND VGND VPWR VPWR mux_right_ipin_12.mux_l2_in_1_/X sky130_fd_sc_hd__mux2_1
Xprog_clk_2_S_FTB01 input45/X VGND VGND VPWR VPWR output114/A sky130_fd_sc_hd__clkbuf_1
Xmux_right_ipin_3.mux_l1_in_0_ repeater122/X repeater131/X mux_right_ipin_3.mux_l1_in_2_/S
+ VGND VGND VPWR VPWR mux_right_ipin_3.mux_l1_in_0_/X sky130_fd_sc_hd__mux2_1
XFILLER_27_3 VGND VGND VPWR VPWR sky130_fd_sc_hd__fill_1
XFILLER_20_27 VGND VGND VPWR VPWR sky130_fd_sc_hd__fill_1
XANTENNA_mem_right_ipin_2.sky130_fd_sc_hd__dfxtp_1_0__CLK prog_clk_0_FTB00/X VGND
+ VGND VPWR VPWR sky130_fd_sc_hd__diode_2
XANTENNA_mem_right_ipin_15.sky130_fd_sc_hd__dfxtp_1_0__CLK prog_clk_0_FTB00/X VGND
+ VGND VPWR VPWR sky130_fd_sc_hd__diode_2
XFILLER_10_82 VGND VGND VPWR VPWR sky130_fd_sc_hd__fill_2
Xmux_right_ipin_12.mux_l1_in_2_ _38_/A _58_/A mux_right_ipin_12.mux_l1_in_2_/S VGND
+ VGND VPWR VPWR mux_right_ipin_12.mux_l1_in_2_/X sky130_fd_sc_hd__mux2_1
XFILLER_15_27 VGND VGND VPWR VPWR sky130_fd_sc_hd__fill_1
Xoutput48 output48/A VGND VGND VPWR VPWR Test_en_N_out sky130_fd_sc_hd__buf_2
XANTENNA_mux_right_ipin_15.mux_l4_in_0__S output50/A VGND VGND VPWR VPWR sky130_fd_sc_hd__diode_2
XANTENNA_mux_right_ipin_10.mux_l2_in_2__A0 _66_/A VGND VGND VPWR VPWR sky130_fd_sc_hd__diode_2
Xoutput59 _49_/X VGND VGND VPWR VPWR chany_bottom_out[17] sky130_fd_sc_hd__buf_2
XANTENNA__45__A _45_/A VGND VGND VPWR VPWR sky130_fd_sc_hd__diode_2
XTAP_129 VGND VPWR sky130_fd_sc_hd__tapvpwrvgnd_1
XTAP_118 VGND VPWR sky130_fd_sc_hd__tapvpwrvgnd_1
XFILLER_21_81 VGND VGND VPWR VPWR sky130_fd_sc_hd__decap_6
XTAP_107 VGND VPWR sky130_fd_sc_hd__tapvpwrvgnd_1
XPHY_1 VGND VGND VPWR VPWR sky130_fd_sc_hd__decap_3
Xrepeater120 input35/X VGND VGND VPWR VPWR repeater120/X sky130_fd_sc_hd__dlymetal6s2s_1
Xrepeater131 repeater132/X VGND VGND VPWR VPWR repeater131/X sky130_fd_sc_hd__clkbuf_1
XANTENNA_mem_right_ipin_5.sky130_fd_sc_hd__dfxtp_1_1__CLK prog_clk_0_FTB00/X VGND
+ VGND VPWR VPWR sky130_fd_sc_hd__diode_2
Xmem_right_ipin_0.sky130_fd_sc_hd__dfxtp_1_3_ prog_clk_0_FTB00/X mux_right_ipin_0.mux_l3_in_1_/S
+ VGND VGND VPWR VPWR mux_right_ipin_0.mux_l4_in_0_/S sky130_fd_sc_hd__dfxtp_1
XANTENNA_input14_A chany_bottom_in[1] VGND VGND VPWR VPWR sky130_fd_sc_hd__diode_2
XANTENNA_mux_right_ipin_7.mux_l1_in_0__S mux_right_ipin_7.mux_l1_in_2_/S VGND VGND
+ VPWR VPWR sky130_fd_sc_hd__diode_2
Xmux_right_ipin_8.mux_l1_in_0_ repeater126/X repeater123/X mux_right_ipin_8.mux_l1_in_2_/S
+ VGND VGND VPWR VPWR mux_right_ipin_8.mux_l1_in_0_/X sky130_fd_sc_hd__mux2_1
XANTENNA_input6_A chany_bottom_in[12] VGND VGND VPWR VPWR sky130_fd_sc_hd__diode_2
XANTENNA_mem_right_ipin_8.sky130_fd_sc_hd__dfxtp_1_2__CLK prog_clk_0_FTB00/X VGND
+ VGND VPWR VPWR sky130_fd_sc_hd__diode_2
XFILLER_9_18 VGND VGND VPWR VPWR sky130_fd_sc_hd__fill_2
X_42_ _42_/A VGND VGND VPWR VPWR _42_/X sky130_fd_sc_hd__clkbuf_1
XANTENNA_mux_right_ipin_9.mux_l2_in_2__A1 _37_/A VGND VGND VPWR VPWR sky130_fd_sc_hd__diode_2
Xmux_right_ipin_12.mux_l2_in_0_ mux_right_ipin_12.mux_l1_in_1_/X mux_right_ipin_12.mux_l1_in_0_/X
+ mux_right_ipin_12.mux_l2_in_3_/S VGND VGND VPWR VPWR mux_right_ipin_12.mux_l2_in_0_/X
+ sky130_fd_sc_hd__mux2_1
Xmux_right_ipin_12.sky130_fd_sc_hd__buf_4_0_ mux_right_ipin_12.mux_l4_in_0_/X VGND
+ VGND VPWR VPWR output107/A sky130_fd_sc_hd__clkbuf_1
XANTENNA_Test_en_N_FTB01_A input1/X VGND VGND VPWR VPWR sky130_fd_sc_hd__diode_2
XFILLER_19_113 VGND VGND VPWR VPWR sky130_fd_sc_hd__fill_2
XANTENNA_input44_A clk_3_S_in VGND VGND VPWR VPWR sky130_fd_sc_hd__diode_2
XFILLER_10_72 VGND VGND VPWR VPWR sky130_fd_sc_hd__decap_8
Xmux_right_ipin_12.mux_l1_in_1_ input35/X repeater130/X mux_right_ipin_12.mux_l1_in_2_/S
+ VGND VGND VPWR VPWR mux_right_ipin_12.mux_l1_in_1_/X sky130_fd_sc_hd__mux2_1
Xmem_right_ipin_3.sky130_fd_sc_hd__dfxtp_1_3_ prog_clk_0_FTB00/X mux_right_ipin_3.mux_l3_in_1_/S
+ VGND VGND VPWR VPWR mux_right_ipin_3.mux_l4_in_0_/S sky130_fd_sc_hd__dfxtp_1
Xmux_right_ipin_4.sky130_fd_sc_hd__buf_4_0_ mux_right_ipin_4.mux_l4_in_0_/X VGND VGND
+ VPWR VPWR output99/A sky130_fd_sc_hd__clkbuf_1
Xoutput49 output49/A VGND VGND VPWR VPWR Test_en_W_out sky130_fd_sc_hd__buf_2
XFILLER_16_105 VGND VGND VPWR VPWR sky130_fd_sc_hd__decap_4
XANTENNA_mux_right_ipin_10.mux_l2_in_2__A1 _38_/A VGND VGND VPWR VPWR sky130_fd_sc_hd__diode_2
XANTENNA__61__A _61_/A VGND VGND VPWR VPWR sky130_fd_sc_hd__diode_2
XTAP_119 VGND VPWR sky130_fd_sc_hd__tapvpwrvgnd_1
XTAP_108 VGND VPWR sky130_fd_sc_hd__tapvpwrvgnd_1
XPHY_2 VGND VGND VPWR VPWR sky130_fd_sc_hd__decap_3
Xrepeater132 _53_/A VGND VGND VPWR VPWR repeater132/X sky130_fd_sc_hd__clkbuf_1
XFILLER_7_40 VGND VGND VPWR VPWR sky130_fd_sc_hd__fill_2
Xrepeater121 repeater122/X VGND VGND VPWR VPWR _33_/A sky130_fd_sc_hd__dlymetal6s2s_1
XANTENNA__56__A _56_/A VGND VGND VPWR VPWR sky130_fd_sc_hd__diode_2
Xmem_right_ipin_0.sky130_fd_sc_hd__dfxtp_1_2_ prog_clk_0_FTB00/X mux_right_ipin_0.mux_l2_in_3_/S
+ VGND VGND VPWR VPWR mux_right_ipin_0.mux_l3_in_1_/S sky130_fd_sc_hd__dfxtp_1
XANTENNA_mux_right_ipin_4.mux_l2_in_2__A0 _66_/A VGND VGND VPWR VPWR sky130_fd_sc_hd__diode_2
X_41_ _41_/A VGND VGND VPWR VPWR _41_/X sky130_fd_sc_hd__clkbuf_1
Xmem_right_ipin_6.sky130_fd_sc_hd__dfxtp_1_3_ prog_clk_0_FTB00/X mux_right_ipin_6.mux_l3_in_1_/S
+ VGND VGND VPWR VPWR mux_right_ipin_6.mux_l4_in_0_/S sky130_fd_sc_hd__dfxtp_1
XFILLER_20_29 VGND VGND VPWR VPWR sky130_fd_sc_hd__decap_4
XANTENNA_input37_A chany_top_in[4] VGND VGND VPWR VPWR sky130_fd_sc_hd__diode_2
Xmem_right_ipin_3.sky130_fd_sc_hd__dfxtp_1_2_ prog_clk_0_FTB00/X mux_right_ipin_3.mux_l2_in_3_/S
+ VGND VGND VPWR VPWR mux_right_ipin_3.mux_l3_in_1_/S sky130_fd_sc_hd__dfxtp_1
XANTENNA__59__A _59_/A VGND VGND VPWR VPWR sky130_fd_sc_hd__diode_2
XANTENNA_mem_right_ipin_4.sky130_fd_sc_hd__dfxtp_1_2__D mux_right_ipin_4.mux_l2_in_3_/S
+ VGND VGND VPWR VPWR sky130_fd_sc_hd__diode_2
Xmux_right_ipin_12.mux_l1_in_0_ repeater126/X repeater123/X mux_right_ipin_12.mux_l1_in_2_/S
+ VGND VGND VPWR VPWR mux_right_ipin_12.mux_l1_in_0_/X sky130_fd_sc_hd__mux2_1
XTAP_109 VGND VPWR sky130_fd_sc_hd__tapvpwrvgnd_1
Xrepeater122 input34/X VGND VGND VPWR VPWR repeater122/X sky130_fd_sc_hd__clkbuf_1
XPHY_3 VGND VGND VPWR VPWR sky130_fd_sc_hd__decap_3
Xmem_right_ipin_0.sky130_fd_sc_hd__dfxtp_1_1_ prog_clk_0_FTB00/X mux_right_ipin_0.mux_l1_in_2_/S
+ VGND VGND VPWR VPWR mux_right_ipin_0.mux_l2_in_3_/S sky130_fd_sc_hd__dfxtp_2
XANTENNA_mem_right_ipin_12.sky130_fd_sc_hd__dfxtp_1_2__CLK prog_clk_0_FTB00/X VGND
+ VGND VPWR VPWR sky130_fd_sc_hd__diode_2
XANTENNA_mux_right_ipin_4.mux_l2_in_2__A1 _40_/A VGND VGND VPWR VPWR sky130_fd_sc_hd__diode_2
Xmem_right_ipin_9.sky130_fd_sc_hd__dfxtp_1_3_ prog_clk_0_FTB00/X mux_right_ipin_9.mux_l3_in_1_/S
+ VGND VGND VPWR VPWR mux_right_ipin_9.mux_l4_in_0_/S sky130_fd_sc_hd__dfxtp_1
XANTENNA_mux_right_ipin_14.mux_l2_in_1__A0 _62_/A VGND VGND VPWR VPWR sky130_fd_sc_hd__diode_2
XANTENNA_mux_right_ipin_3.mux_l1_in_0__S mux_right_ipin_3.mux_l1_in_2_/S VGND VGND
+ VPWR VPWR sky130_fd_sc_hd__diode_2
XANTENNA_mem_right_ipin_2.sky130_fd_sc_hd__dfxtp_1_3__CLK prog_clk_0_FTB00/X VGND
+ VGND VPWR VPWR sky130_fd_sc_hd__diode_2
Xmem_right_ipin_11.sky130_fd_sc_hd__dfxtp_1_3_ prog_clk_0_FTB00/X mux_right_ipin_11.mux_l3_in_1_/S
+ VGND VGND VPWR VPWR mux_right_ipin_11.mux_l4_in_0_/S sky130_fd_sc_hd__dfxtp_1
XFILLER_13_73 VGND VGND VPWR VPWR sky130_fd_sc_hd__decap_8
X_40_ _40_/A VGND VGND VPWR VPWR _40_/X sky130_fd_sc_hd__clkbuf_1
XANTENNA_mem_right_ipin_15.sky130_fd_sc_hd__dfxtp_1_3__CLK prog_clk_0_FTB00/X VGND
+ VGND VPWR VPWR sky130_fd_sc_hd__diode_2
Xmux_right_ipin_0.mux_l2_in_3__138 VGND VGND VPWR VPWR mux_right_ipin_0.mux_l2_in_3_/A0
+ mux_right_ipin_0.mux_l2_in_3__138/LO sky130_fd_sc_hd__conb_1
Xmem_right_ipin_6.sky130_fd_sc_hd__dfxtp_1_2_ prog_clk_0_FTB00/X mux_right_ipin_6.mux_l2_in_3_/S
+ VGND VGND VPWR VPWR mux_right_ipin_6.mux_l3_in_1_/S sky130_fd_sc_hd__dfxtp_1
XANTENNA_output50_A output50/A VGND VGND VPWR VPWR sky130_fd_sc_hd__diode_2
Xmux_right_ipin_4.mux_l2_in_3_ mux_right_ipin_4.mux_l2_in_3_/A0 _46_/A mux_right_ipin_4.mux_l2_in_3_/S
+ VGND VGND VPWR VPWR mux_right_ipin_4.mux_l2_in_3_/X sky130_fd_sc_hd__mux2_1
XFILLER_19_83 VGND VGND VPWR VPWR sky130_fd_sc_hd__fill_1
Xmem_right_ipin_3.sky130_fd_sc_hd__dfxtp_1_1_ prog_clk_0_FTB00/X mux_right_ipin_3.mux_l1_in_2_/S
+ VGND VGND VPWR VPWR mux_right_ipin_3.mux_l2_in_3_/S sky130_fd_sc_hd__dfxtp_2
XTest_en_E_FTB01 input1/X VGND VGND VPWR VPWR output47/A sky130_fd_sc_hd__clkbuf_1
XANTENNA_mux_right_ipin_1.mux_l2_in_0__A0 _55_/A VGND VGND VPWR VPWR sky130_fd_sc_hd__diode_2
XFILLER_10_85 VGND VGND VPWR VPWR sky130_fd_sc_hd__decap_3
XFILLER_21_51 VGND VGND VPWR VPWR sky130_fd_sc_hd__decap_4
XFILLER_21_40 VGND VGND VPWR VPWR sky130_fd_sc_hd__decap_6
XANTENNA_mem_right_ipin_6.sky130_fd_sc_hd__dfxtp_1_0__CLK prog_clk_0_FTB00/X VGND
+ VGND VPWR VPWR sky130_fd_sc_hd__diode_2
XPHY_4 VGND VGND VPWR VPWR sky130_fd_sc_hd__decap_3
XFILLER_7_53 VGND VGND VPWR VPWR sky130_fd_sc_hd__fill_1
Xrepeater123 input3/X VGND VGND VPWR VPWR repeater123/X sky130_fd_sc_hd__clkbuf_2
XFILLER_26_29 VGND VGND VPWR VPWR sky130_fd_sc_hd__fill_1
Xmem_right_ipin_0.sky130_fd_sc_hd__dfxtp_1_0_ prog_clk_0_FTB00/X input2/X VGND VGND