* NGSPICE file created from cby_0__1_.ext - technology: sky130A

* Black-box entry subcircuit for sky130_fd_sc_hd__decap_6 abstract view
.subckt sky130_fd_sc_hd__decap_6 VGND VNB VPB VPWR
.ends

* Black-box entry subcircuit for sky130_fd_sc_hd__fill_1 abstract view
.subckt sky130_fd_sc_hd__fill_1 VGND VNB VPB VPWR
.ends

* Black-box entry subcircuit for sky130_fd_sc_hd__decap_4 abstract view
.subckt sky130_fd_sc_hd__decap_4 VGND VNB VPB VPWR
.ends

* Black-box entry subcircuit for sky130_ef_sc_hd__decap_12 abstract view
.subckt sky130_ef_sc_hd__decap_12 VGND VPWR VPB VNB
.ends

* Black-box entry subcircuit for sky130_fd_sc_hd__decap_3 abstract view
.subckt sky130_fd_sc_hd__decap_3 VGND VNB VPB VPWR
.ends

* Black-box entry subcircuit for sky130_fd_sc_hd__diode_2 abstract view
.subckt sky130_fd_sc_hd__diode_2 DIODE VGND VNB VPB VPWR
.ends

* Black-box entry subcircuit for sky130_fd_sc_hd__buf_2 abstract view
.subckt sky130_fd_sc_hd__buf_2 A VGND VNB VPB VPWR X
.ends

* Black-box entry subcircuit for sky130_fd_sc_hd__tapvpwrvgnd_1 abstract view
.subckt sky130_fd_sc_hd__tapvpwrvgnd_1 VGND VPWR
.ends

* Black-box entry subcircuit for sky130_fd_sc_hd__decap_8 abstract view
.subckt sky130_fd_sc_hd__decap_8 VGND VNB VPB VPWR
.ends

* Black-box entry subcircuit for sky130_fd_sc_hd__fill_2 abstract view
.subckt sky130_fd_sc_hd__fill_2 VGND VNB VPB VPWR
.ends

* Black-box entry subcircuit for sky130_fd_sc_hd__buf_8 abstract view
.subckt sky130_fd_sc_hd__buf_8 A VGND VNB VPB VPWR X
.ends

* Black-box entry subcircuit for sky130_fd_sc_hd__clkbuf_1 abstract view
.subckt sky130_fd_sc_hd__clkbuf_1 A VGND VNB VPB VPWR X
.ends

* Black-box entry subcircuit for sky130_fd_sc_hd__dfxtp_1 abstract view
.subckt sky130_fd_sc_hd__dfxtp_1 CLK D VGND VNB VPB VPWR Q
.ends

* Black-box entry subcircuit for sky130_fd_sc_hd__inv_1 abstract view
.subckt sky130_fd_sc_hd__inv_1 A VGND VNB VPB VPWR Y
.ends

* Black-box entry subcircuit for sky130_fd_sc_hd__conb_1 abstract view
.subckt sky130_fd_sc_hd__conb_1 VGND VNB VPB VPWR HI LO
.ends

* Black-box entry subcircuit for sky130_fd_sc_hd__ebufn_8 abstract view
.subckt sky130_fd_sc_hd__ebufn_8 A TE_B VGND VNB VPB VPWR Z
.ends

* Black-box entry subcircuit for sky130_fd_sc_hd__mux2_1 abstract view
.subckt sky130_fd_sc_hd__mux2_1 A0 A1 S VGND VNB VPB VPWR X
.ends

* Black-box entry subcircuit for sky130_fd_sc_hd__dlygate4sd3_1 abstract view
.subckt sky130_fd_sc_hd__dlygate4sd3_1 A VGND VNB VPB VPWR X
.ends

* Black-box entry subcircuit for sky130_fd_sc_hd__or2b_2 abstract view
.subckt sky130_fd_sc_hd__or2b_2 A B_N VGND VNB VPB VPWR X
.ends

.subckt cby_0__1_ IO_ISOL_N VGND VPWR ccff_head ccff_tail chany_bottom_in[0] chany_bottom_in[10]
+ chany_bottom_in[11] chany_bottom_in[12] chany_bottom_in[13] chany_bottom_in[14]
+ chany_bottom_in[15] chany_bottom_in[16] chany_bottom_in[17] chany_bottom_in[18]
+ chany_bottom_in[19] chany_bottom_in[1] chany_bottom_in[2] chany_bottom_in[3] chany_bottom_in[4]
+ chany_bottom_in[5] chany_bottom_in[6] chany_bottom_in[7] chany_bottom_in[8] chany_bottom_in[9]
+ chany_bottom_out[0] chany_bottom_out[10] chany_bottom_out[11] chany_bottom_out[12]
+ chany_bottom_out[13] chany_bottom_out[14] chany_bottom_out[15] chany_bottom_out[16]
+ chany_bottom_out[17] chany_bottom_out[18] chany_bottom_out[19] chany_bottom_out[1]
+ chany_bottom_out[2] chany_bottom_out[3] chany_bottom_out[4] chany_bottom_out[5]
+ chany_bottom_out[6] chany_bottom_out[7] chany_bottom_out[8] chany_bottom_out[9]
+ chany_top_in[0] chany_top_in[10] chany_top_in[11] chany_top_in[12] chany_top_in[13]
+ chany_top_in[14] chany_top_in[15] chany_top_in[16] chany_top_in[17] chany_top_in[18]
+ chany_top_in[19] chany_top_in[1] chany_top_in[2] chany_top_in[3] chany_top_in[4]
+ chany_top_in[5] chany_top_in[6] chany_top_in[7] chany_top_in[8] chany_top_in[9]
+ chany_top_out[0] chany_top_out[10] chany_top_out[11] chany_top_out[12] chany_top_out[13]
+ chany_top_out[14] chany_top_out[15] chany_top_out[16] chany_top_out[17] chany_top_out[18]
+ chany_top_out[19] chany_top_out[1] chany_top_out[2] chany_top_out[3] chany_top_out[4]
+ chany_top_out[5] chany_top_out[6] chany_top_out[7] chany_top_out[8] chany_top_out[9]
+ gfpga_pad_EMBEDDED_IO_HD_SOC_DIR gfpga_pad_EMBEDDED_IO_HD_SOC_IN gfpga_pad_EMBEDDED_IO_HD_SOC_OUT
+ left_grid_pin_0_ prog_clk_0_E_in right_width_0_height_0__pin_0_ right_width_0_height_0__pin_1_lower
+ right_width_0_height_0__pin_1_upper
XFILLER_22_133 VGND VGND VPWR VPWR sky130_fd_sc_hd__decap_6
XFILLER_26_85 VGND VGND VPWR VPWR sky130_fd_sc_hd__fill_1
XFILLER_13_100 VGND VGND VPWR VPWR sky130_fd_sc_hd__decap_4
XFILLER_9_137 VGND VPWR VPWR VGND sky130_ef_sc_hd__decap_12
XFILLER_0_57 VGND VGND VPWR VPWR sky130_fd_sc_hd__decap_3
XFILLER_2_121 VGND VPWR VPWR VGND sky130_ef_sc_hd__decap_12
XFILLER_20_65 VGND VPWR VPWR VGND sky130_ef_sc_hd__decap_12
XANTENNA_input18_A chany_bottom_in[5] VGND VGND VPWR VPWR sky130_fd_sc_hd__diode_2
XFILLER_25_153 VGND VGND VPWR VPWR sky130_fd_sc_hd__fill_1
XFILLER_15_98 VGND VPWR VPWR VGND sky130_ef_sc_hd__decap_12
Xoutput75 _19_/X VGND VGND VPWR VPWR chany_top_out[18] sky130_fd_sc_hd__buf_2
XFILLER_16_153 VGND VGND VPWR VPWR sky130_fd_sc_hd__decap_6
Xoutput53 _38_/X VGND VGND VPWR VPWR chany_bottom_out[16] sky130_fd_sc_hd__buf_2
Xoutput64 _30_/X VGND VGND VPWR VPWR chany_bottom_out[8] sky130_fd_sc_hd__buf_2
Xoutput86 output86/A VGND VGND VPWR VPWR gfpga_pad_EMBEDDED_IO_HD_SOC_DIR sky130_fd_sc_hd__buf_2
XTAP_123 VGND VPWR sky130_fd_sc_hd__tapvpwrvgnd_1
XTAP_112 VGND VPWR sky130_fd_sc_hd__tapvpwrvgnd_1
XTAP_101 VGND VPWR sky130_fd_sc_hd__tapvpwrvgnd_1
XFILLER_3_57 VGND VPWR VPWR VGND sky130_ef_sc_hd__decap_12
XFILLER_9_149 VGND VGND VPWR VPWR sky130_fd_sc_hd__decap_8
XFILLER_12_88 VGND VPWR VPWR VGND sky130_ef_sc_hd__decap_12
XFILLER_2_133 VGND VGND VPWR VPWR sky130_fd_sc_hd__decap_6
XFILLER_20_77 VGND VGND VPWR VPWR sky130_fd_sc_hd__decap_6
XANTENNA_input30_A chany_top_in[16] VGND VGND VPWR VPWR sky130_fd_sc_hd__diode_2
Xoutput76 _20_/X VGND VGND VPWR VPWR chany_top_out[19] sky130_fd_sc_hd__buf_2
Xoutput54 _39_/X VGND VGND VPWR VPWR chany_bottom_out[17] sky130_fd_sc_hd__buf_2
Xoutput65 _31_/X VGND VGND VPWR VPWR chany_bottom_out[9] sky130_fd_sc_hd__buf_2
Xoutput87 output87/A VGND VGND VPWR VPWR left_grid_pin_0_ sky130_fd_sc_hd__buf_2
XTAP_124 VGND VPWR sky130_fd_sc_hd__tapvpwrvgnd_1
XTAP_113 VGND VPWR sky130_fd_sc_hd__tapvpwrvgnd_1
XTAP_102 VGND VPWR sky130_fd_sc_hd__tapvpwrvgnd_1
XFILLER_26_98 VGND VGND VPWR VPWR sky130_fd_sc_hd__decap_6
XFILLER_13_157 VGND VGND VPWR VPWR sky130_fd_sc_hd__fill_2
XFILLER_13_113 VGND VPWR VPWR VGND sky130_ef_sc_hd__decap_12
XFILLER_3_69 VGND VPWR VPWR VGND sky130_ef_sc_hd__decap_12
XFILLER_6_109 VGND VPWR VPWR VGND sky130_ef_sc_hd__decap_12
XFILLER_23_55 VGND VGND VPWR VPWR sky130_fd_sc_hd__fill_1
XFILLER_3_3 VGND VPWR VPWR VGND sky130_ef_sc_hd__decap_12
XFILLER_9_24 VGND VPWR VPWR VGND sky130_ef_sc_hd__decap_12
XFILLER_9_46 VGND VGND VPWR VPWR sky130_fd_sc_hd__decap_3
XFILLER_9_57 VGND VGND VPWR VPWR sky130_fd_sc_hd__decap_8
XFILLER_18_66 VGND VGND VPWR VPWR sky130_fd_sc_hd__fill_2
Xoutput88 _21_/X VGND VGND VPWR VPWR right_width_0_height_0__pin_1_upper sky130_fd_sc_hd__buf_2
XANTENNA_input23_A chany_top_in[0] VGND VGND VPWR VPWR sky130_fd_sc_hd__diode_2
Xoutput66 _42_/X VGND VGND VPWR VPWR chany_top_out[0] sky130_fd_sc_hd__buf_2
Xoutput77 _02_/X VGND VGND VPWR VPWR chany_top_out[1] sky130_fd_sc_hd__buf_2
XFILLER_25_111 VGND VGND VPWR VPWR sky130_fd_sc_hd__fill_1
XFILLER_15_23 VGND VGND VPWR VPWR sky130_fd_sc_hd__fill_2
Xoutput55 _40_/X VGND VGND VPWR VPWR chany_bottom_out[18] sky130_fd_sc_hd__buf_2
XTAP_125 VGND VPWR sky130_fd_sc_hd__tapvpwrvgnd_1
XTAP_114 VGND VPWR sky130_fd_sc_hd__tapvpwrvgnd_1
XTAP_103 VGND VPWR sky130_fd_sc_hd__tapvpwrvgnd_1
XFILLER_26_11 VGND VPWR VPWR VGND sky130_ef_sc_hd__decap_12
XFILLER_13_125 VGND VPWR VPWR VGND sky130_ef_sc_hd__decap_12
XFILLER_3_15 VGND VPWR VPWR VGND sky130_ef_sc_hd__decap_12
XFILLER_5_7 VGND VPWR VPWR VGND sky130_ef_sc_hd__decap_12
XFILLER_10_139 VGND VGND VPWR VPWR sky130_fd_sc_hd__fill_1
Xprog_clk_0_FTB00 prog_clk_0_E_in VGND VGND VPWR VPWR prog_clk_0_FTB00/X sky130_fd_sc_hd__buf_8
XFILLER_9_36 VGND VGND VPWR VPWR sky130_fd_sc_hd__fill_1
X_29_ _29_/A VGND VGND VPWR VPWR _29_/X sky130_fd_sc_hd__clkbuf_1
XFILLER_1_92 VGND VGND VPWR VPWR sky130_fd_sc_hd__fill_2
XFILLER_1_81 VGND VGND VPWR VPWR sky130_fd_sc_hd__fill_2
XFILLER_6_15 VGND VPWR VPWR VGND sky130_ef_sc_hd__decap_12
Xoutput67 _11_/X VGND VGND VPWR VPWR chany_top_out[10] sky130_fd_sc_hd__buf_2
Xoutput78 _03_/X VGND VGND VPWR VPWR chany_top_out[2] sky130_fd_sc_hd__buf_2
Xoutput45 output45/A VGND VGND VPWR VPWR ccff_tail sky130_fd_sc_hd__buf_2
Xoutput56 _41_/X VGND VGND VPWR VPWR chany_bottom_out[19] sky130_fd_sc_hd__buf_2
XTAP_126 VGND VPWR sky130_fd_sc_hd__tapvpwrvgnd_1
XTAP_115 VGND VPWR sky130_fd_sc_hd__tapvpwrvgnd_1
XTAP_104 VGND VPWR sky130_fd_sc_hd__tapvpwrvgnd_1
XANTENNA_input16_A chany_bottom_in[3] VGND VGND VPWR VPWR sky130_fd_sc_hd__diode_2
XFILLER_26_34 VGND VPWR VPWR VGND sky130_ef_sc_hd__decap_12
XFILLER_26_23 VGND VGND VPWR VPWR sky130_fd_sc_hd__decap_4
XFILLER_13_104 VGND VGND VPWR VPWR sky130_fd_sc_hd__fill_1
XANTENNA_input8_A chany_bottom_in[14] VGND VGND VPWR VPWR sky130_fd_sc_hd__diode_2
XFILLER_13_137 VGND VPWR VPWR VGND sky130_ef_sc_hd__decap_12
XFILLER_3_27 VGND VPWR VPWR VGND sky130_ef_sc_hd__decap_12
XFILLER_8_141 VGND VPWR VPWR VGND sky130_ef_sc_hd__decap_12
XFILLER_5_111 VGND VGND VPWR VPWR sky130_fd_sc_hd__fill_1
XFILLER_23_57 VGND VPWR VPWR VGND sky130_ef_sc_hd__decap_12
XFILLER_9_15 VGND VGND VPWR VPWR sky130_fd_sc_hd__decap_6
XFILLER_18_46 VGND VPWR VPWR VGND sky130_ef_sc_hd__decap_12
X_28_ _28_/A VGND VGND VPWR VPWR _28_/X sky130_fd_sc_hd__clkbuf_1
XFILLER_19_154 VGND VGND VPWR VPWR sky130_fd_sc_hd__fill_1
XFILLER_6_27 VGND VGND VPWR VPWR sky130_fd_sc_hd__fill_1
XFILLER_25_113 VGND VPWR VPWR VGND sky130_ef_sc_hd__decap_12
Xoutput46 _22_/X VGND VGND VPWR VPWR chany_bottom_out[0] sky130_fd_sc_hd__buf_2
Xoutput57 _23_/X VGND VGND VPWR VPWR chany_bottom_out[1] sky130_fd_sc_hd__buf_2
Xoutput68 _12_/X VGND VGND VPWR VPWR chany_top_out[11] sky130_fd_sc_hd__buf_2
XTAP_127 VGND VPWR sky130_fd_sc_hd__tapvpwrvgnd_1
Xoutput79 _04_/X VGND VGND VPWR VPWR chany_top_out[3] sky130_fd_sc_hd__buf_2
XTAP_116 VGND VPWR sky130_fd_sc_hd__tapvpwrvgnd_1
XTAP_105 VGND VPWR sky130_fd_sc_hd__tapvpwrvgnd_1
XFILLER_7_81 VGND VPWR VPWR VGND sky130_ef_sc_hd__decap_12
XFILLER_26_46 VGND VPWR VPWR VGND sky130_ef_sc_hd__decap_12
XFILLER_13_149 VGND VGND VPWR VPWR sky130_fd_sc_hd__decap_8
XFILLER_3_39 VGND VPWR VPWR VGND sky130_ef_sc_hd__decap_12
XFILLER_8_153 VGND VGND VPWR VPWR sky130_fd_sc_hd__decap_6
XFILLER_12_15 VGND VPWR VPWR VGND sky130_ef_sc_hd__decap_12
XFILLER_23_69 VGND VPWR VPWR VGND sky130_ef_sc_hd__decap_12
XFILLER_13_91 VGND VGND VPWR VPWR sky130_fd_sc_hd__fill_1
XFILLER_0_29 VGND VGND VPWR VPWR sky130_fd_sc_hd__decap_3
XANTENNA_input39_A chany_top_in[6] VGND VGND VPWR VPWR sky130_fd_sc_hd__diode_2
XFILLER_18_58 VGND VGND VPWR VPWR sky130_fd_sc_hd__decap_8
XFILLER_1_3 VGND VGND VPWR VPWR sky130_fd_sc_hd__fill_1
X_27_ _27_/A VGND VGND VPWR VPWR _27_/X sky130_fd_sc_hd__clkbuf_1
XFILLER_20_15 VGND VPWR VPWR VGND sky130_ef_sc_hd__decap_12
XFILLER_19_111 VGND VGND VPWR VPWR sky130_fd_sc_hd__fill_1
XFILLER_25_125 VGND VPWR VPWR VGND sky130_ef_sc_hd__decap_12
XFILLER_15_48 VGND VGND VPWR VPWR sky130_fd_sc_hd__fill_2
XFILLER_15_15 VGND VGND VPWR VPWR sky130_fd_sc_hd__decap_8
Xoutput69 _13_/X VGND VGND VPWR VPWR chany_top_out[12] sky130_fd_sc_hd__buf_2
Xoutput47 _32_/X VGND VGND VPWR VPWR chany_bottom_out[10] sky130_fd_sc_hd__buf_2
Xoutput58 _24_/X VGND VGND VPWR VPWR chany_bottom_out[2] sky130_fd_sc_hd__buf_2
XTAP_128 VGND VPWR sky130_fd_sc_hd__tapvpwrvgnd_1
XTAP_117 VGND VPWR sky130_fd_sc_hd__tapvpwrvgnd_1
XFILLER_22_139 VGND VGND VPWR VPWR sky130_fd_sc_hd__fill_1
XTAP_106 VGND VPWR sky130_fd_sc_hd__tapvpwrvgnd_1
XPHY_0 VGND VGND VPWR VPWR sky130_fd_sc_hd__decap_3
XFILLER_7_93 VGND VPWR VPWR VGND sky130_ef_sc_hd__decap_12
XFILLER_26_58 VGND VPWR VPWR VGND sky130_ef_sc_hd__decap_12
XANTENNA_input21_A chany_bottom_in[8] VGND VGND VPWR VPWR sky130_fd_sc_hd__diode_2
XFILLER_8_121 VGND VPWR VPWR VGND sky130_ef_sc_hd__decap_12
XFILLER_10_109 VGND VPWR VPWR VGND sky130_ef_sc_hd__decap_12
XFILLER_12_27 VGND VGND VPWR VPWR sky130_fd_sc_hd__fill_1
XFILLER_5_113 VGND VPWR VPWR VGND sky130_ef_sc_hd__decap_12
XFILLER_5_157 VGND VGND VPWR VPWR sky130_fd_sc_hd__fill_2
XFILLER_23_15 VGND VPWR VPWR VGND sky130_ef_sc_hd__decap_12
XFILLER_4_83 VGND VGND VPWR VPWR sky130_fd_sc_hd__fill_1
XFILLER_18_15 VGND VPWR VPWR VGND sky130_ef_sc_hd__decap_12
XFILLER_27_3 VGND VGND VPWR VPWR sky130_fd_sc_hd__fill_1
XFILLER_20_27 VGND VGND VPWR VPWR sky130_fd_sc_hd__fill_1
X_26_ _26_/A VGND VGND VPWR VPWR _26_/X sky130_fd_sc_hd__clkbuf_1
XFILLER_6_29 VGND VPWR VPWR VGND sky130_ef_sc_hd__decap_12
XFILLER_25_137 VGND VPWR VPWR VGND sky130_ef_sc_hd__decap_12
X_09_ _09_/A VGND VGND VPWR VPWR _09_/X sky130_fd_sc_hd__clkbuf_1
Xoutput48 _33_/X VGND VGND VPWR VPWR chany_bottom_out[11] sky130_fd_sc_hd__buf_2
Xoutput59 _25_/X VGND VGND VPWR VPWR chany_bottom_out[3] sky130_fd_sc_hd__buf_2
XTAP_129 VGND VPWR sky130_fd_sc_hd__tapvpwrvgnd_1
XTAP_118 VGND VPWR sky130_fd_sc_hd__tapvpwrvgnd_1
XFILLER_21_81 VGND VPWR VPWR VGND sky130_ef_sc_hd__decap_12
XTAP_107 VGND VPWR sky130_fd_sc_hd__tapvpwrvgnd_1
XPHY_1 VGND VGND VPWR VPWR sky130_fd_sc_hd__decap_3
Xmem_right_ipin_0.sky130_fd_sc_hd__dfxtp_1_3_ prog_clk_0_FTB00/X mux_right_ipin_0.mux_l3_in_1_/S
+ VGND VGND VPWR VPWR hold1/A sky130_fd_sc_hd__dfxtp_1
XANTENNA_input14_A chany_bottom_in[1] VGND VGND VPWR VPWR sky130_fd_sc_hd__diode_2
XFILLER_8_133 VGND VGND VPWR VPWR sky130_fd_sc_hd__decap_6
XANTENNA_input6_A chany_bottom_in[12] VGND VGND VPWR VPWR sky130_fd_sc_hd__diode_2
Xlogical_tile_io_mode_io__0.ltile_phy_iopad_0.EMBEDDED_IO_HD_0_.INV_SOC_DIR output86/A
+ VGND VGND VPWR VPWR logical_tile_io_mode_io__0.ltile_phy_iopad_0.EMBEDDED_IO_HD_0_.INV_SOC_DIR/Y
+ sky130_fd_sc_hd__inv_1
XFILLER_5_125 VGND VPWR VPWR VGND sky130_ef_sc_hd__decap_12
XFILLER_23_27 VGND VPWR VPWR VGND sky130_ef_sc_hd__decap_12
XFILLER_2_139 VGND VGND VPWR VPWR sky130_fd_sc_hd__fill_1
X_42_ _42_/A VGND VGND VPWR VPWR _42_/X sky130_fd_sc_hd__clkbuf_1
XFILLER_18_27 VGND VGND VPWR VPWR sky130_fd_sc_hd__fill_1
XFILLER_1_96 VGND VGND VPWR VPWR sky130_fd_sc_hd__fill_2
XFILLER_1_85 VGND VGND VPWR VPWR sky130_fd_sc_hd__fill_1
X_25_ _25_/A VGND VGND VPWR VPWR _25_/X sky130_fd_sc_hd__clkbuf_1
XFILLER_19_113 VGND VPWR VPWR VGND sky130_ef_sc_hd__decap_12
XANTENNA_input44_A right_width_0_height_0__pin_0_ VGND VGND VPWR VPWR sky130_fd_sc_hd__diode_2
XFILLER_10_83 VGND VGND VPWR VPWR sky130_fd_sc_hd__fill_1
XFILLER_25_105 VGND VGND VPWR VPWR sky130_fd_sc_hd__decap_6
XFILLER_19_146 VGND VGND VPWR VPWR sky130_fd_sc_hd__decap_8
XFILLER_19_81 VGND VPWR VPWR VGND sky130_ef_sc_hd__decap_12
X_08_ _08_/A VGND VGND VPWR VPWR _08_/X sky130_fd_sc_hd__clkbuf_1
XFILLER_25_149 VGND VGND VPWR VPWR sky130_fd_sc_hd__decap_4
XFILLER_16_138 VGND VGND VPWR VPWR sky130_fd_sc_hd__fill_2
XFILLER_15_28 VGND VPWR VPWR VGND sky130_ef_sc_hd__decap_12
Xoutput49 _34_/X VGND VGND VPWR VPWR chany_bottom_out[12] sky130_fd_sc_hd__buf_2
XTAP_119 VGND VPWR sky130_fd_sc_hd__tapvpwrvgnd_1
XFILLER_21_93 VGND VPWR VPWR VGND sky130_ef_sc_hd__decap_12
XTAP_108 VGND VPWR sky130_fd_sc_hd__tapvpwrvgnd_1
XPHY_2 VGND VGND VPWR VPWR sky130_fd_sc_hd__decap_3
XFILLER_11_7 VGND VPWR VPWR VGND sky130_ef_sc_hd__decap_12
XFILLER_26_27 VGND VGND VPWR VPWR sky130_fd_sc_hd__fill_1
XFILLER_13_108 VGND VGND VPWR VPWR sky130_fd_sc_hd__decap_4
XFILLER_7_51 VGND VGND VPWR VPWR sky130_fd_sc_hd__decap_4
Xmem_right_ipin_0.sky130_fd_sc_hd__dfxtp_1_2_ prog_clk_0_FTB00/X mux_right_ipin_0.mux_l2_in_3_/S
+ VGND VGND VPWR VPWR mux_right_ipin_0.mux_l3_in_1_/S sky130_fd_sc_hd__dfxtp_1
XFILLER_12_141 VGND VPWR VPWR VGND sky130_ef_sc_hd__decap_12
XFILLER_12_29 VGND VPWR VPWR VGND sky130_ef_sc_hd__decap_12
XFILLER_5_137 VGND VPWR VPWR VGND sky130_ef_sc_hd__decap_12
XFILLER_4_41 VGND VPWR VPWR VGND sky130_ef_sc_hd__decap_12
XFILLER_4_85 VGND VPWR VPWR VGND sky130_ef_sc_hd__decap_12
XFILLER_23_39 VGND VPWR VPWR VGND sky130_ef_sc_hd__decap_12
X_41_ _41_/A VGND VGND VPWR VPWR _41_/X sky130_fd_sc_hd__clkbuf_1
XFILLER_20_29 VGND VPWR VPWR VGND sky130_ef_sc_hd__decap_12
XFILLER_1_31 VGND VGND VPWR VPWR sky130_fd_sc_hd__fill_1
X_24_ _24_/A VGND VGND VPWR VPWR _24_/X sky130_fd_sc_hd__clkbuf_1
XANTENNA_input37_A chany_top_in[4] VGND VGND VPWR VPWR sky130_fd_sc_hd__diode_2
XFILLER_19_125 VGND VPWR VPWR VGND sky130_ef_sc_hd__decap_12
XFILLER_19_93 VGND VPWR VPWR VGND sky130_ef_sc_hd__decap_12
Xmux_right_ipin_0.mux_l2_in_3__89 VGND VGND VPWR VPWR mux_right_ipin_0.mux_l2_in_3_/A0
+ mux_right_ipin_0.mux_l2_in_3__89/LO sky130_fd_sc_hd__conb_1
X_07_ _07_/A VGND VGND VPWR VPWR _07_/X sky130_fd_sc_hd__clkbuf_1
XTAP_109 VGND VPWR sky130_fd_sc_hd__tapvpwrvgnd_1
XFILLER_16_106 VGND VPWR VPWR VGND sky130_ef_sc_hd__decap_12
XFILLER_22_109 VGND VPWR VPWR VGND sky130_ef_sc_hd__decap_12
XPHY_3 VGND VGND VPWR VPWR sky130_fd_sc_hd__decap_3
XFILLER_16_94 VGND VPWR VPWR VGND sky130_ef_sc_hd__decap_12
XFILLER_16_61 VGND VGND VPWR VPWR sky130_fd_sc_hd__fill_1
Xmem_right_ipin_0.sky130_fd_sc_hd__dfxtp_1_1_ prog_clk_0_FTB00/X mux_right_ipin_0.mux_l1_in_2_/S
+ VGND VGND VPWR VPWR mux_right_ipin_0.mux_l2_in_3_/S sky130_fd_sc_hd__dfxtp_1
XFILLER_12_153 VGND VGND VPWR VPWR sky130_fd_sc_hd__decap_6
XFILLER_5_105 VGND VGND VPWR VPWR sky130_fd_sc_hd__decap_6
XFILLER_5_149 VGND VGND VPWR VPWR sky130_fd_sc_hd__decap_8
XFILLER_27_93 VGND VGND VPWR VPWR sky130_fd_sc_hd__fill_1
XFILLER_4_53 VGND VPWR VPWR VGND sky130_ef_sc_hd__decap_12
XFILLER_4_97 VGND VPWR VPWR VGND sky130_ef_sc_hd__decap_12
X_40_ _40_/A VGND VGND VPWR VPWR _40_/X sky130_fd_sc_hd__clkbuf_1
XFILLER_13_95 VGND VGND VPWR VPWR sky130_fd_sc_hd__fill_2
XFILLER_1_141 VGND VGND VPWR VPWR sky130_fd_sc_hd__fill_1
XFILLER_18_29 VGND VPWR VPWR VGND sky130_ef_sc_hd__decap_12
XFILLER_24_83 VGND VGND VPWR VPWR sky130_fd_sc_hd__fill_1
X_23_ _23_/A VGND VGND VPWR VPWR _23_/X sky130_fd_sc_hd__clkbuf_1
XFILLER_19_137 VGND VGND VPWR VPWR sky130_fd_sc_hd__decap_4
XFILLER_10_41 VGND VPWR VPWR VGND sky130_ef_sc_hd__decap_12
XFILLER_10_85 VGND VPWR VPWR VGND sky130_ef_sc_hd__decap_12
X_06_ _06_/A VGND VGND VPWR VPWR _06_/X sky130_fd_sc_hd__clkbuf_1
XFILLER_16_118 VGND VPWR VPWR VGND sky130_ef_sc_hd__decap_12
XPHY_4 VGND VGND VPWR VPWR sky130_fd_sc_hd__decap_3
XFILLER_26_29 VGND VGND VPWR VPWR sky130_fd_sc_hd__fill_1
Xmem_right_ipin_0.sky130_fd_sc_hd__dfxtp_1_0_ prog_clk_0_FTB00/X input2/X VGND VGND
+ VPWR VPWR mux_right_ipin_0.mux_l1_in_2_/S sky130_fd_sc_hd__dfxtp_1
XANTENNA_input12_A chany_bottom_in[18] VGND VGND VPWR VPWR sky130_fd_sc_hd__diode_2
XFILLER_2_109 VGND VPWR VPWR VGND sky130_ef_sc_hd__decap_12
XFILLER_4_65 VGND VPWR VPWR VGND sky130_ef_sc_hd__decap_12
XANTENNA_input4_A chany_bottom_in[10] VGND VGND VPWR VPWR sky130_fd_sc_hd__diode_2
XFILLER_1_120 VGND VGND VPWR VPWR sky130_fd_sc_hd__fill_2
XFILLER_1_88 VGND VGND VPWR VPWR sky130_fd_sc_hd__fill_2
X_22_ _22_/A VGND VGND VPWR VPWR _22_/X sky130_fd_sc_hd__clkbuf_1
XFILLER_19_105 VGND VGND VPWR VPWR sky130_fd_sc_hd__decap_6
XFILLER_10_53 VGND VPWR VPWR VGND sky130_ef_sc_hd__decap_12
XFILLER_10_97 VGND VPWR VPWR VGND sky130_ef_sc_hd__decap_12
X_05_ _05_/A VGND VGND VPWR VPWR _05_/X sky130_fd_sc_hd__clkbuf_1
XFILLER_18_3 VGND VPWR VPWR VGND sky130_ef_sc_hd__decap_12
XFILLER_24_141 VGND VPWR VPWR VGND sky130_ef_sc_hd__decap_12
Xlogical_tile_io_mode_io__0.ltile_phy_iopad_0.EMBEDDED_IO_HD_0_.IN_PROTECT_GATE input43/X
+ logical_tile_io_mode_io__0.ltile_phy_iopad_0.EMBEDDED_IO_HD_0_.INV_SOC_DIR/Y VGND
+ VGND VPWR VPWR right_width_0_height_0__pin_1_lower sky130_fd_sc_hd__ebufn_8
XANTENNA_input42_A chany_top_in[9] VGND VGND VPWR VPWR sky130_fd_sc_hd__diode_2
XPHY_5 VGND VGND VPWR VPWR sky130_fd_sc_hd__decap_3
XFILLER_21_111 VGND VGND VPWR VPWR sky130_fd_sc_hd__fill_1
XFILLER_16_41 VGND VPWR VPWR VGND sky130_ef_sc_hd__decap_12
XFILLER_12_100 VGND VPWR VPWR VGND sky130_ef_sc_hd__decap_12
XFILLER_4_77 VGND VGND VPWR VPWR sky130_fd_sc_hd__decap_6
XFILLER_1_132 VGND VGND VPWR VPWR sky130_fd_sc_hd__fill_2
XFILLER_24_85 VGND VPWR VPWR VGND sky130_ef_sc_hd__decap_12
XFILLER_24_41 VGND VPWR VPWR VGND sky130_ef_sc_hd__decap_12
X_21_ right_width_0_height_0__pin_1_lower VGND VGND VPWR VPWR _21_/X sky130_fd_sc_hd__clkbuf_1
XFILLER_10_65 VGND VPWR VPWR VGND sky130_ef_sc_hd__decap_12
XFILLER_25_5 VGND VPWR VPWR VGND sky130_ef_sc_hd__decap_12
X_04_ _04_/A VGND VGND VPWR VPWR _04_/X sky130_fd_sc_hd__clkbuf_1
XFILLER_24_153 VGND VGND VPWR VPWR sky130_fd_sc_hd__decap_6
XANTENNA_input35_A chany_top_in[2] VGND VGND VPWR VPWR sky130_fd_sc_hd__diode_2
XPHY_6 VGND VGND VPWR VPWR sky130_fd_sc_hd__decap_3
XFILLER_7_55 VGND VGND VPWR VPWR sky130_fd_sc_hd__fill_1
XFILLER_16_53 VGND VGND VPWR VPWR sky130_fd_sc_hd__decap_8
XFILLER_12_112 VGND VPWR VPWR VGND sky130_ef_sc_hd__decap_12
XFILLER_4_141 VGND VPWR VPWR VGND sky130_ef_sc_hd__decap_12
XFILLER_1_100 VGND VGND VPWR VPWR sky130_fd_sc_hd__fill_2
XFILLER_1_144 VGND VGND VPWR VPWR sky130_fd_sc_hd__fill_2
XFILLER_8_3 VGND VPWR VPWR VGND sky130_ef_sc_hd__decap_12
XFILLER_24_97 VGND VPWR VPWR VGND sky130_ef_sc_hd__decap_12
XFILLER_24_53 VGND VPWR VPWR VGND sky130_ef_sc_hd__decap_12
X_20_ _20_/A VGND VGND VPWR VPWR _20_/X sky130_fd_sc_hd__clkbuf_1
XFILLER_1_57 VGND VPWR VPWR VGND sky130_ef_sc_hd__decap_12
XFILLER_1_13 VGND VPWR VPWR VGND sky130_ef_sc_hd__decap_12
Xinput1 IO_ISOL_N VGND VGND VPWR VPWR input1/X sky130_fd_sc_hd__clkbuf_1
XFILLER_19_31 VGND VGND VPWR VPWR sky130_fd_sc_hd__fill_1
XFILLER_10_77 VGND VGND VPWR VPWR sky130_fd_sc_hd__decap_6
XTAP_90 VGND VPWR sky130_fd_sc_hd__tapvpwrvgnd_1
X_03_ _03_/A VGND VGND VPWR VPWR _03_/X sky130_fd_sc_hd__clkbuf_1
XFILLER_24_121 VGND VPWR VPWR VGND sky130_ef_sc_hd__decap_12
XANTENNA_input28_A chany_top_in[14] VGND VGND VPWR VPWR sky130_fd_sc_hd__diode_2
XFILLER_15_110 VGND VGND VPWR VPWR sky130_fd_sc_hd__fill_2
XPHY_7 VGND VGND VPWR VPWR sky130_fd_sc_hd__decap_3
XFILLER_23_3 VGND VPWR VPWR VGND sky130_ef_sc_hd__decap_12
XFILLER_21_157 VGND VGND VPWR VPWR sky130_fd_sc_hd__fill_2
XFILLER_21_113 VGND VPWR VPWR VGND sky130_ef_sc_hd__decap_12
XFILLER_8_139 VGND VGND VPWR VPWR sky130_fd_sc_hd__fill_1
XFILLER_12_124 VGND VPWR VPWR VGND sky130_ef_sc_hd__decap_12
XFILLER_27_97 VGND VGND VPWR VPWR sky130_fd_sc_hd__fill_1
XFILLER_4_153 VGND VGND VPWR VPWR sky130_fd_sc_hd__decap_6
XANTENNA_input10_A chany_bottom_in[16] VGND VGND VPWR VPWR sky130_fd_sc_hd__diode_2
XANTENNA_input2_A ccff_head VGND VGND VPWR VPWR sky130_fd_sc_hd__diode_2
XFILLER_24_65 VGND VPWR VPWR VGND sky130_ef_sc_hd__decap_12
XFILLER_1_69 VGND VPWR VPWR VGND sky130_ef_sc_hd__decap_12
XFILLER_1_36 VGND VPWR VPWR VGND sky130_ef_sc_hd__decap_12
XFILLER_1_25 VGND VGND VPWR VPWR sky130_fd_sc_hd__decap_6
Xinput2 ccff_head VGND VGND VPWR VPWR input2/X sky130_fd_sc_hd__clkbuf_1
XTAP_80 VGND VPWR sky130_fd_sc_hd__tapvpwrvgnd_1
XTAP_91 VGND VPWR sky130_fd_sc_hd__tapvpwrvgnd_1
XFILLER_19_54 VGND VGND VPWR VPWR sky130_fd_sc_hd__fill_2
XFILLER_18_141 VGND VPWR VPWR VGND sky130_ef_sc_hd__decap_12
X_02_ _02_/A VGND VGND VPWR VPWR _02_/X sky130_fd_sc_hd__clkbuf_1
XFILLER_24_133 VGND VGND VPWR VPWR sky130_fd_sc_hd__decap_6
XFILLER_21_44 VGND VPWR VPWR VGND sky130_ef_sc_hd__decap_12
XFILLER_16_3 VGND VPWR VPWR VGND sky130_ef_sc_hd__decap_12
XPHY_8 VGND VGND VPWR VPWR sky130_fd_sc_hd__decap_3
XFILLER_7_57 VGND VPWR VPWR VGND sky130_ef_sc_hd__decap_12
XFILLER_21_125 VGND VPWR VPWR VGND sky130_ef_sc_hd__decap_12
XFILLER_12_136 VGND VGND VPWR VPWR sky130_fd_sc_hd__decap_4
XANTENNA_input40_A chany_top_in[7] VGND VGND VPWR VPWR sky130_fd_sc_hd__diode_2
XFILLER_4_121 VGND VPWR VPWR VGND sky130_ef_sc_hd__decap_12
Xmux_right_ipin_0.sky130_fd_sc_hd__buf_4_0_ mux_right_ipin_0.mux_l4_in_0_/X VGND VGND
+ VPWR VPWR output87/A sky130_fd_sc_hd__clkbuf_1
XFILLER_1_124 VGND VGND VPWR VPWR sky130_fd_sc_hd__fill_2
XFILLER_24_77 VGND VGND VPWR VPWR sky130_fd_sc_hd__decap_6
XFILLER_1_48 VGND VGND VPWR VPWR sky130_fd_sc_hd__decap_8
XTAP_92 VGND VPWR sky130_fd_sc_hd__tapvpwrvgnd_1
Xinput3 chany_bottom_in[0] VGND VGND VPWR VPWR _42_/A sky130_fd_sc_hd__clkbuf_1
XTAP_70 VGND VPWR sky130_fd_sc_hd__tapvpwrvgnd_1
XTAP_81 VGND VPWR sky130_fd_sc_hd__tapvpwrvgnd_1
XFILLER_18_153 VGND VGND VPWR VPWR sky130_fd_sc_hd__decap_6
XPHY_9 VGND VGND VPWR VPWR sky130_fd_sc_hd__decap_3
XFILLER_7_69 VGND VPWR VPWR VGND sky130_ef_sc_hd__decap_12
XFILLER_21_137 VGND VPWR VPWR VGND sky130_ef_sc_hd__decap_12
XANTENNA_prog_clk_0_FTB00_A prog_clk_0_E_in VGND VGND VPWR VPWR sky130_fd_sc_hd__diode_2
XANTENNA_input33_A chany_top_in[19] VGND VGND VPWR VPWR sky130_fd_sc_hd__diode_2
XFILLER_4_15 VGND VPWR VPWR VGND sky130_ef_sc_hd__decap_12
XFILLER_4_133 VGND VGND VPWR VPWR sky130_fd_sc_hd__decap_6
XFILLER_1_136 VGND VGND VPWR VPWR sky130_fd_sc_hd__decap_3
XFILLER_13_24 VGND VPWR VPWR VGND sky130_ef_sc_hd__decap_12
XFILLER_6_3 VGND VPWR VPWR VGND sky130_ef_sc_hd__decap_12
XTAP_60 VGND VPWR sky130_fd_sc_hd__tapvpwrvgnd_1
Xinput4 chany_bottom_in[10] VGND VGND VPWR VPWR _11_/A sky130_fd_sc_hd__clkbuf_1
XTAP_71 VGND VPWR sky130_fd_sc_hd__tapvpwrvgnd_1
XTAP_82 VGND VPWR sky130_fd_sc_hd__tapvpwrvgnd_1
XTAP_93 VGND VPWR sky130_fd_sc_hd__tapvpwrvgnd_1
XFILLER_21_57 VGND VPWR VPWR VGND sky130_ef_sc_hd__decap_12
XFILLER_21_35 VGND VGND VPWR VPWR sky130_fd_sc_hd__fill_2
XFILLER_15_157 VGND VGND VPWR VPWR sky130_fd_sc_hd__fill_2
XFILLER_15_113 VGND VPWR VPWR VGND sky130_ef_sc_hd__decap_12
XFILLER_7_15 VGND VPWR VPWR VGND sky130_ef_sc_hd__decap_12
Xinput40 chany_top_in[7] VGND VGND VPWR VPWR _29_/A sky130_fd_sc_hd__clkbuf_1
XFILLER_21_149 VGND VGND VPWR VPWR sky130_fd_sc_hd__decap_8
XFILLER_21_105 VGND VGND VPWR VPWR sky130_fd_sc_hd__decap_6
XANTENNA_input26_A chany_top_in[12] VGND VGND VPWR VPWR sky130_fd_sc_hd__diode_2
XANTENNA__21__A right_width_0_height_0__pin_1_lower VGND VGND VPWR VPWR sky130_fd_sc_hd__diode_2
XFILLER_8_109 VGND VPWR VPWR VGND sky130_ef_sc_hd__decap_12
XFILLER_21_3 VGND VPWR VPWR VGND sky130_ef_sc_hd__decap_12
XFILLER_27_89 VGND VGND VPWR VPWR sky130_fd_sc_hd__fill_1
Xmux_right_ipin_0.mux_l2_in_3_ mux_right_ipin_0.mux_l2_in_3_/A0 _38_/A mux_right_ipin_0.mux_l2_in_3_/S
+ VGND VGND VPWR VPWR mux_right_ipin_0.mux_l2_in_3_/X sky130_fd_sc_hd__mux2_1
XFILLER_4_27 VGND VGND VPWR VPWR sky130_fd_sc_hd__fill_1
XFILLER_13_36 VGND VGND VPWR VPWR sky130_fd_sc_hd__decap_8
XFILLER_13_47 VGND VGND VPWR VPWR sky130_fd_sc_hd__decap_3
XFILLER_1_104 VGND VGND VPWR VPWR sky130_fd_sc_hd__fill_2
XFILLER_1_148 VGND VGND VPWR VPWR sky130_fd_sc_hd__fill_2
XFILLER_5_81 VGND VPWR VPWR VGND sky130_ef_sc_hd__decap_12
Xinput5 chany_bottom_in[11] VGND VGND VPWR VPWR _12_/A sky130_fd_sc_hd__clkbuf_1
XFILLER_27_133 VGND VGND VPWR VPWR sky130_fd_sc_hd__fill_1
XFILLER_27_111 VGND VGND VPWR VPWR sky130_fd_sc_hd__fill_1
XFILLER_19_57 VGND VPWR VPWR VGND sky130_ef_sc_hd__decap_12
XTAP_94 VGND VPWR sky130_fd_sc_hd__tapvpwrvgnd_1
XTAP_61 VGND VPWR sky130_fd_sc_hd__tapvpwrvgnd_1
XTAP_72 VGND VPWR sky130_fd_sc_hd__tapvpwrvgnd_1
XFILLER_10_15 VGND VPWR VPWR VGND sky130_ef_sc_hd__decap_12
XTAP_83 VGND VPWR sky130_fd_sc_hd__tapvpwrvgnd_1
Xmux_right_ipin_0.mux_l4_in_0_ mux_right_ipin_0.mux_l3_in_1_/X mux_right_ipin_0.mux_l3_in_0_/X
+ hold1/A VGND VGND VPWR VPWR mux_right_ipin_0.mux_l4_in_0_/X sky130_fd_sc_hd__mux2_1
XFILLER_21_69 VGND VPWR VPWR VGND sky130_ef_sc_hd__decap_12
XFILLER_15_125 VGND VPWR VPWR VGND sky130_ef_sc_hd__decap_12
XFILLER_7_27 VGND VPWR VPWR VGND sky130_ef_sc_hd__decap_12
Xinput30 chany_top_in[16] VGND VGND VPWR VPWR _38_/A sky130_fd_sc_hd__clkbuf_1
Xinput41 chany_top_in[8] VGND VGND VPWR VPWR _30_/A sky130_fd_sc_hd__clkbuf_1
Xmux_right_ipin_0.mux_l3_in_1_ mux_right_ipin_0.mux_l2_in_3_/X mux_right_ipin_0.mux_l2_in_2_/X
+ mux_right_ipin_0.mux_l3_in_1_/S VGND VGND VPWR VPWR mux_right_ipin_0.mux_l3_in_1_/X
+ sky130_fd_sc_hd__mux2_1
XANTENNA_input19_A chany_bottom_in[6] VGND VGND VPWR VPWR sky130_fd_sc_hd__diode_2
XFILLER_14_3 VGND VPWR VPWR VGND sky130_ef_sc_hd__decap_12
XFILLER_27_57 VGND VGND VPWR VPWR sky130_fd_sc_hd__fill_1
Xmux_right_ipin_0.mux_l2_in_2_ _17_/A _32_/A mux_right_ipin_0.mux_l2_in_3_/S VGND
+ VGND VPWR VPWR mux_right_ipin_0.mux_l2_in_2_/X sky130_fd_sc_hd__mux2_1
XFILLER_5_93 VGND VPWR VPWR VGND sky130_ef_sc_hd__decap_12
XFILLER_27_101 VGND VGND VPWR VPWR sky130_fd_sc_hd__fill_1
XFILLER_19_69 VGND VPWR VPWR VGND sky130_ef_sc_hd__decap_12
XTAP_95 VGND VPWR sky130_fd_sc_hd__tapvpwrvgnd_1
Xinput6 chany_bottom_in[12] VGND VGND VPWR VPWR _13_/A sky130_fd_sc_hd__clkbuf_1
XTAP_62 VGND VPWR sky130_fd_sc_hd__tapvpwrvgnd_1
XTAP_73 VGND VPWR sky130_fd_sc_hd__tapvpwrvgnd_1
XFILLER_10_27 VGND VGND VPWR VPWR sky130_fd_sc_hd__fill_1
XTAP_84 VGND VPWR sky130_fd_sc_hd__tapvpwrvgnd_1
XFILLER_2_83 VGND VGND VPWR VPWR sky130_fd_sc_hd__fill_1
XFILLER_21_15 VGND VPWR VPWR VGND sky130_ef_sc_hd__decap_12
XFILLER_15_137 VGND VPWR VPWR VGND sky130_ef_sc_hd__decap_12
Xinput31 chany_top_in[17] VGND VGND VPWR VPWR _39_/A sky130_fd_sc_hd__clkbuf_1
Xinput20 chany_bottom_in[7] VGND VGND VPWR VPWR _08_/A sky130_fd_sc_hd__clkbuf_1
XFILLER_7_39 VGND VPWR VPWR VGND sky130_ef_sc_hd__decap_12
Xmux_right_ipin_0.mux_l3_in_0_ mux_right_ipin_0.mux_l2_in_1_/X mux_right_ipin_0.mux_l2_in_0_/X
+ mux_right_ipin_0.mux_l3_in_1_/S VGND VGND VPWR VPWR mux_right_ipin_0.mux_l3_in_0_/X
+ sky130_fd_sc_hd__mux2_1
Xinput42 chany_top_in[9] VGND VGND VPWR VPWR _31_/A sky130_fd_sc_hd__clkbuf_1
XFILLER_16_15 VGND VPWR VPWR VGND sky130_ef_sc_hd__decap_12
XFILLER_7_111 VGND VGND VPWR VPWR sky130_fd_sc_hd__fill_1
XFILLER_11_151 VGND VGND VPWR VPWR sky130_fd_sc_hd__decap_8
XANTENNA_input31_A chany_top_in[17] VGND VGND VPWR VPWR sky130_fd_sc_hd__diode_2
XFILLER_4_29 VGND VPWR VPWR VGND sky130_ef_sc_hd__decap_12
Xmux_right_ipin_0.mux_l2_in_1_ _11_/A mux_right_ipin_0.mux_l1_in_2_/X mux_right_ipin_0.mux_l2_in_3_/S
+ VGND VGND VPWR VPWR mux_right_ipin_0.mux_l2_in_1_/X sky130_fd_sc_hd__mux2_1
XFILLER_1_128 VGND VGND VPWR VPWR sky130_fd_sc_hd__fill_2