* NGSPICE file created from cby_0__1_.ext - technology: sky130A

* Black-box entry subcircuit for sky130_fd_sc_hd__decap_6 abstract view
.subckt sky130_fd_sc_hd__decap_6 VGND VNB VPB VPWR
.ends

* Black-box entry subcircuit for sky130_ef_sc_hd__decap_12 abstract view
.subckt sky130_ef_sc_hd__decap_12 VGND VPWR VPB VNB
.ends

* Black-box entry subcircuit for sky130_fd_sc_hd__fill_1 abstract view
.subckt sky130_fd_sc_hd__fill_1 VGND VNB VPB VPWR
.ends

* Black-box entry subcircuit for sky130_fd_sc_hd__fill_2 abstract view
.subckt sky130_fd_sc_hd__fill_2 VGND VNB VPB VPWR
.ends

* Black-box entry subcircuit for sky130_fd_sc_hd__tapvpwrvgnd_1 abstract view
.subckt sky130_fd_sc_hd__tapvpwrvgnd_1 VGND VPWR
.ends

* Black-box entry subcircuit for sky130_fd_sc_hd__decap_8 abstract view
.subckt sky130_fd_sc_hd__decap_8 VGND VNB VPB VPWR
.ends

* Black-box entry subcircuit for sky130_fd_sc_hd__diode_2 abstract view
.subckt sky130_fd_sc_hd__diode_2 DIODE VGND VNB VPB VPWR
.ends

* Black-box entry subcircuit for sky130_fd_sc_hd__buf_8 abstract view
.subckt sky130_fd_sc_hd__buf_8 A VGND VNB VPB VPWR X
.ends

* Black-box entry subcircuit for sky130_fd_sc_hd__buf_2 abstract view
.subckt sky130_fd_sc_hd__buf_2 A VGND VNB VPB VPWR X
.ends

* Black-box entry subcircuit for sky130_fd_sc_hd__decap_3 abstract view
.subckt sky130_fd_sc_hd__decap_3 VGND VNB VPB VPWR
.ends

* Black-box entry subcircuit for sky130_fd_sc_hd__decap_4 abstract view
.subckt sky130_fd_sc_hd__decap_4 VGND VNB VPB VPWR
.ends

* Black-box entry subcircuit for sky130_fd_sc_hd__dfxtp_1 abstract view
.subckt sky130_fd_sc_hd__dfxtp_1 CLK D VGND VNB VPB VPWR Q
.ends

* Black-box entry subcircuit for sky130_fd_sc_hd__inv_1 abstract view
.subckt sky130_fd_sc_hd__inv_1 A VGND VNB VPB VPWR Y
.ends

* Black-box entry subcircuit for sky130_fd_sc_hd__ebufn_4 abstract view
.subckt sky130_fd_sc_hd__ebufn_4 A TE_B VGND VNB VPB VPWR Z
.ends

* Black-box entry subcircuit for sky130_fd_sc_hd__buf_4 abstract view
.subckt sky130_fd_sc_hd__buf_4 A VGND VNB VPB VPWR X
.ends

* Black-box entry subcircuit for sky130_fd_sc_hd__conb_1 abstract view
.subckt sky130_fd_sc_hd__conb_1 VGND VNB VPB VPWR HI LO
.ends

* Black-box entry subcircuit for sky130_fd_sc_hd__mux2_1 abstract view
.subckt sky130_fd_sc_hd__mux2_1 A0 A1 S VGND VNB VPB VPWR X
.ends

* Black-box entry subcircuit for sky130_fd_sc_hd__or2b_4 abstract view
.subckt sky130_fd_sc_hd__or2b_4 A B_N VGND VNB VPB VPWR X
.ends

.subckt cby_0__1_ IO_ISOL_N VGND VPWR ccff_head ccff_tail chany_bottom_in[0] chany_bottom_in[10]
+ chany_bottom_in[11] chany_bottom_in[12] chany_bottom_in[13] chany_bottom_in[14]
+ chany_bottom_in[15] chany_bottom_in[16] chany_bottom_in[17] chany_bottom_in[18]
+ chany_bottom_in[19] chany_bottom_in[1] chany_bottom_in[2] chany_bottom_in[3] chany_bottom_in[4]
+ chany_bottom_in[5] chany_bottom_in[6] chany_bottom_in[7] chany_bottom_in[8] chany_bottom_in[9]
+ chany_bottom_out[0] chany_bottom_out[10] chany_bottom_out[11] chany_bottom_out[12]
+ chany_bottom_out[13] chany_bottom_out[14] chany_bottom_out[15] chany_bottom_out[16]
+ chany_bottom_out[17] chany_bottom_out[18] chany_bottom_out[19] chany_bottom_out[1]
+ chany_bottom_out[2] chany_bottom_out[3] chany_bottom_out[4] chany_bottom_out[5]
+ chany_bottom_out[6] chany_bottom_out[7] chany_bottom_out[8] chany_bottom_out[9]
+ chany_top_in[0] chany_top_in[10] chany_top_in[11] chany_top_in[12] chany_top_in[13]
+ chany_top_in[14] chany_top_in[15] chany_top_in[16] chany_top_in[17] chany_top_in[18]
+ chany_top_in[19] chany_top_in[1] chany_top_in[2] chany_top_in[3] chany_top_in[4]
+ chany_top_in[5] chany_top_in[6] chany_top_in[7] chany_top_in[8] chany_top_in[9]
+ chany_top_out[0] chany_top_out[10] chany_top_out[11] chany_top_out[12] chany_top_out[13]
+ chany_top_out[14] chany_top_out[15] chany_top_out[16] chany_top_out[17] chany_top_out[18]
+ chany_top_out[19] chany_top_out[1] chany_top_out[2] chany_top_out[3] chany_top_out[4]
+ chany_top_out[5] chany_top_out[6] chany_top_out[7] chany_top_out[8] chany_top_out[9]
+ gfpga_pad_EMBEDDED_IO_HD_SOC_DIR gfpga_pad_EMBEDDED_IO_HD_SOC_IN gfpga_pad_EMBEDDED_IO_HD_SOC_OUT
+ left_grid_pin_0_ prog_clk_0_E_in right_width_0_height_0__pin_0_ right_width_0_height_0__pin_1_lower
+ right_width_0_height_0__pin_1_upper
XFILLER_22_133 VGND VGND VPWR VPWR sky130_fd_sc_hd__decap_6
XFILLER_26_85 VGND VPWR VPWR VGND sky130_ef_sc_hd__decap_12
XFILLER_26_41 VGND VPWR VPWR VGND sky130_ef_sc_hd__decap_12
XFILLER_9_137 VGND VPWR VPWR VGND sky130_ef_sc_hd__decap_12
XFILLER_13_111 VGND VGND VPWR VPWR sky130_fd_sc_hd__fill_1
XFILLER_12_54 VGND VGND VPWR VPWR sky130_fd_sc_hd__fill_2
XFILLER_2_121 VGND VPWR VPWR VGND sky130_ef_sc_hd__decap_12
XFILLER_0_57 VGND VPWR VPWR VGND sky130_ef_sc_hd__decap_12
XFILLER_9_55 VGND VGND VPWR VPWR sky130_fd_sc_hd__fill_1
XFILLER_20_65 VGND VPWR VPWR VGND sky130_ef_sc_hd__decap_12
XFILLER_26_109 VGND VPWR VPWR VGND sky130_ef_sc_hd__decap_12
XFILLER_16_153 VGND VGND VPWR VPWR sky130_fd_sc_hd__decap_6
XFILLER_16_120 VGND VPWR VPWR VGND sky130_ef_sc_hd__decap_12
XTAP_123 VGND VPWR sky130_fd_sc_hd__tapvpwrvgnd_1
XTAP_112 VGND VPWR sky130_fd_sc_hd__tapvpwrvgnd_1
XTAP_101 VGND VPWR sky130_fd_sc_hd__tapvpwrvgnd_1
XFILLER_26_97 VGND VPWR VPWR VGND sky130_ef_sc_hd__decap_12
XFILLER_26_53 VGND VPWR VPWR VGND sky130_ef_sc_hd__decap_12
XFILLER_3_57 VGND VPWR VPWR VGND sky130_ef_sc_hd__decap_12
XFILLER_9_149 VGND VGND VPWR VPWR sky130_fd_sc_hd__decap_8
XFILLER_2_133 VGND VGND VPWR VPWR sky130_fd_sc_hd__decap_6
XFILLER_0_69 VGND VPWR VPWR VGND sky130_ef_sc_hd__decap_12
XFILLER_18_76 VGND VGND VPWR VPWR sky130_fd_sc_hd__decap_8
XFILLER_20_77 VGND VGND VPWR VPWR sky130_fd_sc_hd__decap_6
XFILLER_16_132 VGND VGND VPWR VPWR sky130_fd_sc_hd__decap_8
XTAP_124 VGND VPWR sky130_fd_sc_hd__tapvpwrvgnd_1
XTAP_113 VGND VPWR sky130_fd_sc_hd__tapvpwrvgnd_1
XTAP_102 VGND VPWR sky130_fd_sc_hd__tapvpwrvgnd_1
XFILLER_26_65 VGND VPWR VPWR VGND sky130_ef_sc_hd__decap_12
XFILLER_9_106 VGND VGND VPWR VPWR sky130_fd_sc_hd__decap_6
XFILLER_3_69 VGND VPWR VPWR VGND sky130_ef_sc_hd__decap_12
XFILLER_6_109 VGND VPWR VPWR VGND sky130_ef_sc_hd__decap_12
XFILLER_12_78 VGND VGND VPWR VPWR sky130_fd_sc_hd__fill_1
XFILLER_12_89 VGND VGND VPWR VPWR sky130_fd_sc_hd__fill_1
XFILLER_23_55 VGND VGND VPWR VPWR sky130_fd_sc_hd__fill_1
XFILLER_3_3 VGND VPWR VPWR VGND sky130_ef_sc_hd__decap_12
XFILLER_0_15 VGND VPWR VPWR VGND sky130_ef_sc_hd__decap_12
XFILLER_9_35 VGND VGND VPWR VPWR sky130_fd_sc_hd__fill_2
XFILLER_9_57 VGND VGND VPWR VPWR sky130_fd_sc_hd__decap_8
XANTENNA_mux_right_ipin_0.mux_l1_in_1__A0 chany_top_in[2] VGND VGND VPWR VPWR sky130_fd_sc_hd__diode_2
XFILLER_25_111 VGND VGND VPWR VPWR sky130_fd_sc_hd__fill_1
XANTENNA__04__A chany_bottom_in[3] VGND VGND VPWR VPWR sky130_fd_sc_hd__diode_2
XFILLER_15_23 VGND VGND VPWR VPWR sky130_fd_sc_hd__fill_2
XFILLER_15_45 VGND VGND VPWR VPWR sky130_fd_sc_hd__fill_1
XTAP_125 VGND VPWR sky130_fd_sc_hd__tapvpwrvgnd_1
XTAP_114 VGND VPWR sky130_fd_sc_hd__tapvpwrvgnd_1
XTAP_103 VGND VPWR sky130_fd_sc_hd__tapvpwrvgnd_1
XFILLER_26_77 VGND VGND VPWR VPWR sky130_fd_sc_hd__decap_6
XANTENNA_mem_right_ipin_0.sky130_fd_sc_hd__dfxtp_1_0__D ccff_head VGND VGND VPWR VPWR
+ sky130_fd_sc_hd__diode_2
XFILLER_13_158 VGND VGND VPWR VPWR sky130_fd_sc_hd__fill_1
XFILLER_3_15 VGND VPWR VPWR VGND sky130_ef_sc_hd__decap_12
XFILLER_10_139 VGND VGND VPWR VPWR sky130_fd_sc_hd__fill_1
XFILLER_0_27 VGND VGND VPWR VPWR sky130_fd_sc_hd__fill_1
Xprog_clk_0_FTB00 prog_clk_0_E_in VGND VGND VPWR VPWR prog_clk_0_FTB00/X sky130_fd_sc_hd__buf_8
XANTENNA__12__A chany_bottom_in[11] VGND VGND VPWR VPWR sky130_fd_sc_hd__diode_2
XFILLER_18_67 VGND VGND VPWR VPWR sky130_fd_sc_hd__fill_1
XANTENNA__07__A chany_bottom_in[6] VGND VGND VPWR VPWR sky130_fd_sc_hd__diode_2
XANTENNA_mux_right_ipin_0.mux_l1_in_1__A1 chany_bottom_in[2] VGND VGND VPWR VPWR sky130_fd_sc_hd__diode_2
X_29_ chany_top_in[7] VGND VGND VPWR VPWR chany_bottom_out[7] sky130_fd_sc_hd__buf_2
XFILLER_1_81 VGND VPWR VPWR VGND sky130_ef_sc_hd__decap_12
XFILLER_6_15 VGND VPWR VPWR VGND sky130_ef_sc_hd__decap_12
XANTENNA__20__A chany_bottom_in[19] VGND VGND VPWR VPWR sky130_fd_sc_hd__diode_2
XTAP_126 VGND VPWR sky130_fd_sc_hd__tapvpwrvgnd_1
XTAP_115 VGND VPWR sky130_fd_sc_hd__tapvpwrvgnd_1
XTAP_104 VGND VPWR sky130_fd_sc_hd__tapvpwrvgnd_1
XFILLER_11_3 VGND VPWR VPWR VGND sky130_ef_sc_hd__decap_12
XFILLER_3_27 VGND VPWR VPWR VGND sky130_ef_sc_hd__decap_12
XANTENNA__15__A chany_bottom_in[14] VGND VGND VPWR VPWR sky130_fd_sc_hd__diode_2
XFILLER_8_141 VGND VPWR VPWR VGND sky130_ef_sc_hd__decap_12
XFILLER_12_25 VGND VGND VPWR VPWR sky130_fd_sc_hd__decap_3
XFILLER_5_111 VGND VGND VPWR VPWR sky130_fd_sc_hd__fill_1
XFILLER_12_47 VGND VGND VPWR VPWR sky130_fd_sc_hd__fill_1
XFILLER_12_58 VGND VGND VPWR VPWR sky130_fd_sc_hd__decap_4
XFILLER_23_57 VGND VPWR VPWR VGND sky130_ef_sc_hd__decap_12
XFILLER_9_15 VGND VGND VPWR VPWR sky130_fd_sc_hd__decap_6
XANTENNA_logical_tile_io_mode_io__0.ltile_phy_iopad_0.EMBEDDED_IO_HD_0_.IN_PROTECT_GATE_A
+ gfpga_pad_EMBEDDED_IO_HD_SOC_IN VGND VGND VPWR VPWR sky130_fd_sc_hd__diode_2
XANTENNA__23__A chany_top_in[1] VGND VGND VPWR VPWR sky130_fd_sc_hd__diode_2
X_28_ chany_top_in[6] VGND VGND VPWR VPWR chany_bottom_out[6] sky130_fd_sc_hd__buf_2
XFILLER_1_93 VGND VPWR VPWR VGND sky130_ef_sc_hd__decap_12
XANTENNA__18__A chany_bottom_in[17] VGND VGND VPWR VPWR sky130_fd_sc_hd__diode_2
XFILLER_6_27 VGND VGND VPWR VPWR sky130_fd_sc_hd__fill_1
XFILLER_25_157 VGND VGND VPWR VPWR sky130_fd_sc_hd__fill_2
XFILLER_25_113 VGND VPWR VPWR VGND sky130_ef_sc_hd__decap_12
XTAP_127 VGND VPWR sky130_fd_sc_hd__tapvpwrvgnd_1
XTAP_116 VGND VPWR sky130_fd_sc_hd__tapvpwrvgnd_1
XTAP_105 VGND VPWR sky130_fd_sc_hd__tapvpwrvgnd_1
XFILLER_7_81 VGND VPWR VPWR VGND sky130_ef_sc_hd__decap_12
XFILLER_3_39 VGND VPWR VPWR VGND sky130_ef_sc_hd__decap_12
XANTENNA__31__A chany_top_in[9] VGND VGND VPWR VPWR sky130_fd_sc_hd__diode_2
XFILLER_8_153 VGND VGND VPWR VPWR sky130_fd_sc_hd__decap_6
XANTENNA__26__A chany_top_in[4] VGND VGND VPWR VPWR sky130_fd_sc_hd__diode_2
XFILLER_23_69 VGND VPWR VPWR VGND sky130_ef_sc_hd__decap_12
XFILLER_0_29 VGND VPWR VPWR VGND sky130_ef_sc_hd__decap_12
XFILLER_9_27 VGND VGND VPWR VPWR sky130_fd_sc_hd__decap_8
XFILLER_1_3 VGND VPWR VPWR VGND sky130_ef_sc_hd__decap_12
X_27_ chany_top_in[5] VGND VGND VPWR VPWR chany_bottom_out[5] sky130_fd_sc_hd__buf_2
XFILLER_20_15 VGND VPWR VPWR VGND sky130_ef_sc_hd__decap_12
XFILLER_19_111 VGND VGND VPWR VPWR sky130_fd_sc_hd__fill_1
XANTENNA__34__A chany_top_in[12] VGND VGND VPWR VPWR sky130_fd_sc_hd__diode_2
XFILLER_25_125 VGND VPWR VPWR VGND sky130_ef_sc_hd__decap_12
XFILLER_15_15 VGND VGND VPWR VPWR sky130_fd_sc_hd__decap_8
XANTENNA__29__A chany_top_in[7] VGND VGND VPWR VPWR sky130_fd_sc_hd__diode_2
XTAP_128 VGND VPWR sky130_fd_sc_hd__tapvpwrvgnd_1
XTAP_117 VGND VPWR sky130_fd_sc_hd__tapvpwrvgnd_1
XFILLER_22_139 VGND VGND VPWR VPWR sky130_fd_sc_hd__fill_1
XTAP_106 VGND VPWR sky130_fd_sc_hd__tapvpwrvgnd_1
XPHY_0 VGND VGND VPWR VPWR sky130_fd_sc_hd__decap_3
XFILLER_7_93 VGND VPWR VPWR VGND sky130_ef_sc_hd__decap_12
XFILLER_13_117 VGND VGND VPWR VPWR sky130_fd_sc_hd__fill_1
XFILLER_8_121 VGND VPWR VPWR VGND sky130_ef_sc_hd__decap_12
XFILLER_10_109 VGND VPWR VPWR VGND sky130_ef_sc_hd__decap_12
XANTENNA__42__A chany_bottom_in[0] VGND VGND VPWR VPWR sky130_fd_sc_hd__diode_2
XFILLER_5_113 VGND VPWR VPWR VGND sky130_ef_sc_hd__decap_12
XFILLER_5_157 VGND VGND VPWR VPWR sky130_fd_sc_hd__fill_2
XFILLER_23_15 VGND VPWR VPWR VGND sky130_ef_sc_hd__decap_12
XFILLER_4_83 VGND VGND VPWR VPWR sky130_fd_sc_hd__fill_1
XANTENNA__37__A chany_top_in[15] VGND VGND VPWR VPWR sky130_fd_sc_hd__diode_2
XFILLER_18_15 VGND VPWR VPWR VGND sky130_ef_sc_hd__decap_12
XFILLER_27_3 VGND VPWR VPWR VGND sky130_ef_sc_hd__decap_12
XFILLER_20_27 VGND VGND VPWR VPWR sky130_fd_sc_hd__fill_1
XFILLER_1_51 VGND VGND VPWR VPWR sky130_fd_sc_hd__decap_4
X_26_ chany_top_in[4] VGND VGND VPWR VPWR chany_bottom_out[4] sky130_fd_sc_hd__buf_2
XANTENNA_mux_right_ipin_0.mux_l2_in_3__A1 chany_top_in[16] VGND VGND VPWR VPWR sky130_fd_sc_hd__diode_2
XFILLER_6_29 VGND VPWR VPWR VGND sky130_ef_sc_hd__decap_12
XFILLER_25_137 VGND VPWR VPWR VGND sky130_ef_sc_hd__decap_12
X_09_ chany_bottom_in[8] VGND VGND VPWR VPWR chany_top_out[8] sky130_fd_sc_hd__buf_2
XTAP_129 VGND VPWR sky130_fd_sc_hd__tapvpwrvgnd_1
XTAP_118 VGND VPWR sky130_fd_sc_hd__tapvpwrvgnd_1
XFILLER_21_81 VGND VPWR VPWR VGND sky130_ef_sc_hd__decap_12
XTAP_107 VGND VPWR sky130_fd_sc_hd__tapvpwrvgnd_1
XPHY_1 VGND VGND VPWR VPWR sky130_fd_sc_hd__decap_3
XFILLER_26_15 VGND VPWR VPWR VGND sky130_ef_sc_hd__decap_12
XFILLER_8_133 VGND VGND VPWR VPWR sky130_fd_sc_hd__decap_6
Xmem_right_ipin_0.sky130_fd_sc_hd__dfxtp_1_3_ prog_clk_0_FTB00/X mux_right_ipin_0.mux_l3_in_1_/S
+ VGND VGND VPWR VPWR mux_right_ipin_0.mux_l4_in_0_/S sky130_fd_sc_hd__dfxtp_1
XFILLER_12_17 VGND VGND VPWR VPWR sky130_fd_sc_hd__decap_8
XFILLER_5_125 VGND VPWR VPWR VGND sky130_ef_sc_hd__decap_12
Xlogical_tile_io_mode_io__0.ltile_phy_iopad_0.EMBEDDED_IO_HD_0_.INV_SOC_DIR gfpga_pad_EMBEDDED_IO_HD_SOC_DIR
+ VGND VGND VPWR VPWR logical_tile_io_mode_io__0.ltile_phy_iopad_0.EMBEDDED_IO_HD_0_.INV_SOC_DIR/Y
+ sky130_fd_sc_hd__inv_1
XFILLER_23_27 VGND VPWR VPWR VGND sky130_ef_sc_hd__decap_12
XFILLER_2_139 VGND VGND VPWR VPWR sky130_fd_sc_hd__fill_1
X_42_ chany_bottom_in[0] VGND VGND VPWR VPWR chany_top_out[0] sky130_fd_sc_hd__buf_2
XFILLER_18_49 VGND VPWR VPWR VGND sky130_ef_sc_hd__decap_12
XFILLER_18_27 VGND VGND VPWR VPWR sky130_fd_sc_hd__fill_1
X_25_ chany_top_in[3] VGND VGND VPWR VPWR chany_bottom_out[3] sky130_fd_sc_hd__buf_2
XFILLER_19_113 VGND VPWR VPWR VGND sky130_ef_sc_hd__decap_12
XFILLER_10_83 VGND VGND VPWR VPWR sky130_fd_sc_hd__fill_1
XFILLER_25_105 VGND VGND VPWR VPWR sky130_fd_sc_hd__decap_6
X_08_ chany_bottom_in[7] VGND VGND VPWR VPWR chany_top_out[7] sky130_fd_sc_hd__buf_2
XFILLER_25_149 VGND VGND VPWR VPWR sky130_fd_sc_hd__decap_8
XFILLER_15_28 VGND VPWR VPWR VGND sky130_ef_sc_hd__decap_12
XTAP_119 VGND VPWR sky130_fd_sc_hd__tapvpwrvgnd_1
XFILLER_21_93 VGND VPWR VPWR VGND sky130_ef_sc_hd__decap_12
XTAP_108 VGND VPWR sky130_fd_sc_hd__tapvpwrvgnd_1
XPHY_2 VGND VGND VPWR VPWR sky130_fd_sc_hd__decap_3
XFILLER_26_27 VGND VGND VPWR VPWR sky130_fd_sc_hd__fill_1
XFILLER_7_51 VGND VGND VPWR VPWR sky130_fd_sc_hd__decap_4
XFILLER_12_141 VGND VPWR VPWR VGND sky130_ef_sc_hd__decap_12
Xmem_right_ipin_0.sky130_fd_sc_hd__dfxtp_1_2_ prog_clk_0_FTB00/X mux_right_ipin_0.mux_l2_in_3_/S
+ VGND VGND VPWR VPWR mux_right_ipin_0.mux_l3_in_1_/S sky130_fd_sc_hd__dfxtp_1
XFILLER_12_29 VGND VPWR VPWR VGND sky130_ef_sc_hd__decap_12
XFILLER_5_137 VGND VPWR VPWR VGND sky130_ef_sc_hd__decap_12
XFILLER_27_81 VGND VGND VPWR VPWR sky130_fd_sc_hd__decap_3
XFILLER_4_41 VGND VPWR VPWR VGND sky130_ef_sc_hd__decap_12
XFILLER_4_85 VGND VPWR VPWR VGND sky130_ef_sc_hd__decap_12
XFILLER_23_39 VGND VPWR VPWR VGND sky130_ef_sc_hd__decap_12
X_41_ chany_top_in[19] VGND VGND VPWR VPWR chany_bottom_out[19] sky130_fd_sc_hd__buf_2
XFILLER_20_29 VGND VPWR VPWR VGND sky130_ef_sc_hd__decap_12
X_24_ chany_top_in[2] VGND VGND VPWR VPWR chany_bottom_out[2] sky130_fd_sc_hd__buf_2
XFILLER_19_147 VGND VPWR VPWR VGND sky130_ef_sc_hd__decap_12
XFILLER_19_125 VGND VPWR VPWR VGND sky130_ef_sc_hd__decap_12
XFILLER_19_71 VGND VPWR VPWR VGND sky130_ef_sc_hd__decap_12
X_07_ chany_bottom_in[6] VGND VGND VPWR VPWR chany_top_out[6] sky130_fd_sc_hd__buf_2
XTAP_109 VGND VPWR sky130_fd_sc_hd__tapvpwrvgnd_1
XFILLER_22_109 VGND VPWR VPWR VGND sky130_ef_sc_hd__decap_12
XPHY_3 VGND VGND VPWR VPWR sky130_fd_sc_hd__decap_3
XFILLER_12_153 VGND VGND VPWR VPWR sky130_fd_sc_hd__decap_6
Xmem_right_ipin_0.sky130_fd_sc_hd__dfxtp_1_1_ prog_clk_0_FTB00/X mux_right_ipin_0.mux_l1_in_2_/S
+ VGND VGND VPWR VPWR mux_right_ipin_0.mux_l2_in_3_/S sky130_fd_sc_hd__dfxtp_1
XFILLER_5_105 VGND VGND VPWR VPWR sky130_fd_sc_hd__decap_6
XFILLER_5_149 VGND VGND VPWR VPWR sky130_fd_sc_hd__decap_8
XFILLER_4_53 VGND VPWR VPWR VGND sky130_ef_sc_hd__decap_12
XFILLER_4_97 VGND VPWR VPWR VGND sky130_ef_sc_hd__decap_12
XFILLER_13_40 VGND VGND VPWR VPWR sky130_fd_sc_hd__decap_4
X_40_ chany_top_in[18] VGND VGND VPWR VPWR chany_bottom_out[18] sky130_fd_sc_hd__buf_2
XFILLER_18_29 VGND VGND VPWR VPWR sky130_fd_sc_hd__decap_8
XFILLER_24_83 VGND VGND VPWR VPWR sky130_fd_sc_hd__fill_1
X_23_ chany_top_in[1] VGND VGND VPWR VPWR chany_bottom_out[1] sky130_fd_sc_hd__buf_2
XFILLER_19_137 VGND VGND VPWR VPWR sky130_fd_sc_hd__decap_4
XFILLER_19_83 VGND VPWR VPWR VGND sky130_ef_sc_hd__decap_12
XFILLER_10_41 VGND VPWR VPWR VGND sky130_ef_sc_hd__decap_12
XFILLER_10_85 VGND VPWR VPWR VGND sky130_ef_sc_hd__decap_12
XFILLER_25_3 VGND VPWR VPWR VGND sky130_ef_sc_hd__decap_12
X_06_ chany_bottom_in[5] VGND VGND VPWR VPWR chany_top_out[5] sky130_fd_sc_hd__buf_2
XPHY_4 VGND VGND VPWR VPWR sky130_fd_sc_hd__decap_3
XFILLER_26_29 VGND VPWR VPWR VGND sky130_ef_sc_hd__decap_12
Xmem_right_ipin_0.sky130_fd_sc_hd__dfxtp_1_0_ prog_clk_0_FTB00/X ccff_head VGND VGND
+ VPWR VPWR mux_right_ipin_0.mux_l1_in_2_/S sky130_fd_sc_hd__dfxtp_1
XFILLER_2_109 VGND VPWR VPWR VGND sky130_ef_sc_hd__decap_12
XFILLER_4_65 VGND VPWR VPWR VGND sky130_ef_sc_hd__decap_12
XFILLER_13_96 VGND VGND VPWR VPWR sky130_fd_sc_hd__fill_1
XFILLER_1_55 VGND VGND VPWR VPWR sky130_fd_sc_hd__fill_1
X_22_ chany_top_in[0] VGND VGND VPWR VPWR chany_bottom_out[0] sky130_fd_sc_hd__buf_2
XFILLER_19_95 VGND VPWR VPWR VGND sky130_ef_sc_hd__decap_12
XFILLER_10_53 VGND VPWR VPWR VGND sky130_ef_sc_hd__decap_12
XFILLER_10_97 VGND VPWR VPWR VGND sky130_ef_sc_hd__decap_12
X_05_ chany_bottom_in[4] VGND VGND VPWR VPWR chany_top_out[4] sky130_fd_sc_hd__buf_2
XFILLER_18_3 VGND VPWR VPWR VGND sky130_ef_sc_hd__decap_12
XFILLER_24_141 VGND VPWR VPWR VGND sky130_ef_sc_hd__decap_12
XFILLER_16_108 VGND VPWR VPWR VGND sky130_ef_sc_hd__decap_12
Xlogical_tile_io_mode_io__0.ltile_phy_iopad_0.EMBEDDED_IO_HD_0_.IN_PROTECT_GATE gfpga_pad_EMBEDDED_IO_HD_SOC_IN
+ logical_tile_io_mode_io__0.ltile_phy_iopad_0.EMBEDDED_IO_HD_0_.INV_SOC_DIR/Y VGND
+ VGND VPWR VPWR right_width_0_height_0__pin_1_lower sky130_fd_sc_hd__ebufn_4
XPHY_5 VGND VGND VPWR VPWR sky130_fd_sc_hd__decap_3
XFILLER_21_111 VGND VGND VPWR VPWR sky130_fd_sc_hd__fill_1
XFILLER_16_96 VGND VPWR VPWR VGND sky130_ef_sc_hd__decap_12
XFILLER_16_41 VGND VGND VPWR VPWR sky130_fd_sc_hd__decap_8
XFILLER_12_100 VGND VPWR VPWR VGND sky130_ef_sc_hd__decap_12
XFILLER_4_77 VGND VGND VPWR VPWR sky130_fd_sc_hd__decap_6
XFILLER_24_85 VGND VPWR VPWR VGND sky130_ef_sc_hd__decap_12
XFILLER_24_41 VGND VPWR VPWR VGND sky130_ef_sc_hd__decap_12
X_21_ right_width_0_height_0__pin_1_lower VGND VGND VPWR VPWR right_width_0_height_0__pin_1_upper
+ sky130_fd_sc_hd__buf_2
XFILLER_10_65 VGND VPWR VPWR VGND sky130_ef_sc_hd__decap_12
X_04_ chany_bottom_in[3] VGND VGND VPWR VPWR chany_top_out[3] sky130_fd_sc_hd__buf_2
XFILLER_24_153 VGND VGND VPWR VPWR sky130_fd_sc_hd__decap_6
XPHY_6 VGND VGND VPWR VPWR sky130_fd_sc_hd__decap_3
XFILLER_7_55 VGND VGND VPWR VPWR sky130_fd_sc_hd__fill_1
XFILLER_12_112 VGND VPWR VPWR VGND sky130_ef_sc_hd__decap_12
XFILLER_27_41 VGND VPWR VPWR VGND sky130_ef_sc_hd__decap_12
XFILLER_27_85 VGND VPWR VPWR VGND sky130_ef_sc_hd__decap_12
XFILLER_4_141 VGND VPWR VPWR VGND sky130_ef_sc_hd__decap_12
XFILLER_1_111 VGND VGND VPWR VPWR sky130_fd_sc_hd__fill_1
XFILLER_8_3 VGND VPWR VPWR VGND sky130_ef_sc_hd__decap_12
XFILLER_24_97 VGND VPWR VPWR VGND sky130_ef_sc_hd__decap_12
XFILLER_24_53 VGND VPWR VPWR VGND sky130_ef_sc_hd__decap_12
XFILLER_1_57 VGND VPWR VPWR VGND sky130_ef_sc_hd__decap_12
X_20_ chany_bottom_in[19] VGND VGND VPWR VPWR chany_top_out[19] sky130_fd_sc_hd__buf_2
XFILLER_19_107 VGND VGND VPWR VPWR sky130_fd_sc_hd__decap_4
XFILLER_10_77 VGND VGND VPWR VPWR sky130_fd_sc_hd__decap_6
XTAP_90 VGND VPWR sky130_fd_sc_hd__tapvpwrvgnd_1
X_03_ chany_bottom_in[2] VGND VGND VPWR VPWR chany_top_out[2] sky130_fd_sc_hd__buf_2
XFILLER_24_121 VGND VPWR VPWR VGND sky130_ef_sc_hd__decap_12
XFILLER_21_54 VGND VGND VPWR VPWR sky130_fd_sc_hd__fill_2
XFILLER_15_110 VGND VGND VPWR VPWR sky130_fd_sc_hd__fill_2
XPHY_7 VGND VGND VPWR VPWR sky130_fd_sc_hd__decap_3
XFILLER_23_3 VGND VPWR VPWR VGND sky130_ef_sc_hd__decap_12
XFILLER_21_157 VGND VGND VPWR VPWR sky130_fd_sc_hd__fill_2
XFILLER_21_113 VGND VPWR VPWR VGND sky130_ef_sc_hd__decap_12
XFILLER_16_54 VGND VGND VPWR VPWR sky130_fd_sc_hd__fill_2
XFILLER_8_139 VGND VGND VPWR VPWR sky130_fd_sc_hd__fill_1
XFILLER_12_124 VGND VPWR VPWR VGND sky130_ef_sc_hd__decap_12
XFILLER_27_97 VGND VPWR VPWR VGND sky130_ef_sc_hd__decap_12
XFILLER_27_53 VGND VGND VPWR VPWR sky130_fd_sc_hd__decap_3
XFILLER_4_153 VGND VGND VPWR VPWR sky130_fd_sc_hd__decap_6
XFILLER_24_65 VGND VPWR VPWR VGND sky130_ef_sc_hd__decap_12
XFILLER_1_69 VGND VPWR VPWR VGND sky130_ef_sc_hd__decap_12
XTAP_80 VGND VPWR sky130_fd_sc_hd__tapvpwrvgnd_1
XTAP_91 VGND VPWR sky130_fd_sc_hd__tapvpwrvgnd_1
XANTENNA_mux_right_ipin_0.mux_l1_in_0__A0 chany_top_in[0] VGND VGND VPWR VPWR sky130_fd_sc_hd__diode_2
XFILLER_27_141 VGND VPWR VPWR VGND sky130_ef_sc_hd__decap_12
XFILLER_18_141 VGND VPWR VPWR VGND sky130_ef_sc_hd__decap_12
X_02_ chany_bottom_in[1] VGND VGND VPWR VPWR chany_top_out[1] sky130_fd_sc_hd__buf_2
XFILLER_24_133 VGND VGND VPWR VPWR sky130_fd_sc_hd__decap_6
XFILLER_16_3 VGND VPWR VPWR VGND sky130_ef_sc_hd__decap_12
XFILLER_15_122 VGND VPWR VPWR VGND sky130_ef_sc_hd__decap_12
XPHY_8 VGND VGND VPWR VPWR sky130_fd_sc_hd__decap_3
XFILLER_7_57 VGND VPWR VPWR VGND sky130_ef_sc_hd__decap_12
XFILLER_21_125 VGND VPWR VPWR VGND sky130_ef_sc_hd__decap_12
XFILLER_12_136 VGND VGND VPWR VPWR sky130_fd_sc_hd__decap_4
XFILLER_4_121 VGND VPWR VPWR VGND sky130_ef_sc_hd__decap_12
Xmux_right_ipin_0.sky130_fd_sc_hd__buf_4_0_ mux_right_ipin_0.mux_l4_in_0_/X VGND VGND
+ VPWR VPWR left_grid_pin_0_ sky130_fd_sc_hd__buf_4
XFILLER_1_157 VGND VGND VPWR VPWR sky130_fd_sc_hd__fill_2
XFILLER_1_113 VGND VPWR VPWR VGND sky130_ef_sc_hd__decap_12
XANTENNA__02__A chany_bottom_in[1] VGND VGND VPWR VPWR sky130_fd_sc_hd__diode_2
XFILLER_24_77 VGND VGND VPWR VPWR sky130_fd_sc_hd__decap_6
XFILLER_1_15 VGND VPWR VPWR VGND sky130_ef_sc_hd__decap_12
XANTENNA_mux_right_ipin_0.mux_l1_in_0__A1 chany_bottom_in[0] VGND VGND VPWR VPWR sky130_fd_sc_hd__diode_2
XTAP_70 VGND VPWR sky130_fd_sc_hd__tapvpwrvgnd_1
XTAP_81 VGND VPWR sky130_fd_sc_hd__tapvpwrvgnd_1
XTAP_92 VGND VPWR sky130_fd_sc_hd__tapvpwrvgnd_1
XFILLER_27_153 VGND VGND VPWR VPWR sky130_fd_sc_hd__decap_6
XFILLER_19_55 VGND VGND VPWR VPWR sky130_fd_sc_hd__fill_1
XFILLER_18_153 VGND VGND VPWR VPWR sky130_fd_sc_hd__decap_6
XFILLER_18_131 VGND VGND VPWR VPWR sky130_fd_sc_hd__decap_8
X_01_ VGND VGND VPWR VPWR _01_/HI _01_/LO sky130_fd_sc_hd__conb_1
XANTENNA__10__A chany_bottom_in[9] VGND VGND VPWR VPWR sky130_fd_sc_hd__diode_2
XFILLER_15_134 VGND VPWR VPWR VGND sky130_ef_sc_hd__decap_12
XPHY_9 VGND VGND VPWR VPWR sky130_fd_sc_hd__decap_3
XFILLER_7_69 VGND VPWR VPWR VGND sky130_ef_sc_hd__decap_12
XFILLER_21_137 VGND VPWR VPWR VGND sky130_ef_sc_hd__decap_12
XANTENNA_prog_clk_0_FTB00_A prog_clk_0_E_in VGND VGND VPWR VPWR sky130_fd_sc_hd__diode_2
XANTENNA__05__A chany_bottom_in[4] VGND VGND VPWR VPWR sky130_fd_sc_hd__diode_2
XFILLER_4_15 VGND VPWR VPWR VGND sky130_ef_sc_hd__decap_12
XFILLER_4_133 VGND VGND VPWR VPWR sky130_fd_sc_hd__decap_6
XFILLER_1_125 VGND VPWR VPWR VGND sky130_ef_sc_hd__decap_12
XFILLER_1_27 VGND VPWR VPWR VGND sky130_ef_sc_hd__decap_12
XFILLER_6_3 VGND VPWR VPWR VGND sky130_ef_sc_hd__decap_12
XANTENNA__13__A chany_bottom_in[12] VGND VGND VPWR VPWR sky130_fd_sc_hd__diode_2
XTAP_60 VGND VPWR sky130_fd_sc_hd__tapvpwrvgnd_1
XTAP_71 VGND VPWR sky130_fd_sc_hd__tapvpwrvgnd_1
XTAP_82 VGND VPWR sky130_fd_sc_hd__tapvpwrvgnd_1
XTAP_93 VGND VPWR sky130_fd_sc_hd__tapvpwrvgnd_1
XANTENNA__08__A chany_bottom_in[7] VGND VGND VPWR VPWR sky130_fd_sc_hd__diode_2
XFILLER_21_57 VGND VPWR VPWR VGND sky130_ef_sc_hd__decap_12
XFILLER_21_46 VGND VGND VPWR VPWR sky130_fd_sc_hd__decap_8
XFILLER_15_146 VGND VPWR VPWR VGND sky130_ef_sc_hd__decap_12
XFILLER_7_15 VGND VPWR VPWR VGND sky130_ef_sc_hd__decap_12
XFILLER_21_149 VGND VGND VPWR VPWR sky130_fd_sc_hd__decap_8
XFILLER_21_105 VGND VGND VPWR VPWR sky130_fd_sc_hd__decap_6
XANTENNA__21__A right_width_0_height_0__pin_1_lower VGND VGND VPWR VPWR sky130_fd_sc_hd__diode_2
XFILLER_8_109 VGND VPWR VPWR VGND sky130_ef_sc_hd__decap_12
XFILLER_21_3 VGND VPWR VPWR VGND sky130_ef_sc_hd__decap_12
XANTENNA__16__A chany_bottom_in[15] VGND VGND VPWR VPWR sky130_fd_sc_hd__diode_2
Xmux_right_ipin_0.mux_l2_in_3_ _01_/HI chany_top_in[16] mux_right_ipin_0.mux_l2_in_3_/S
+ VGND VGND VPWR VPWR mux_right_ipin_0.mux_l2_in_3_/X sky130_fd_sc_hd__mux2_1
XFILLER_4_27 VGND VGND VPWR VPWR sky130_fd_sc_hd__fill_1
XFILLER_1_137 VGND VPWR VPWR VGND sky130_ef_sc_hd__decap_12
XFILLER_5_81 VGND VPWR VPWR VGND sky130_ef_sc_hd__decap_12
XFILLER_1_39 VGND VPWR VPWR VGND sky130_ef_sc_hd__decap_12
XTAP_61 VGND VPWR sky130_fd_sc_hd__tapvpwrvgnd_1
XTAP_72 VGND VPWR sky130_fd_sc_hd__tapvpwrvgnd_1
XFILLER_10_15 VGND VPWR VPWR VGND sky130_ef_sc_hd__decap_12
XTAP_83 VGND VPWR sky130_fd_sc_hd__tapvpwrvgnd_1
Xmux_right_ipin_0.mux_l4_in_0_ mux_right_ipin_0.mux_l3_in_1_/X mux_right_ipin_0.mux_l3_in_0_/X
+ mux_right_ipin_0.mux_l4_in_0_/S VGND VGND VPWR VPWR mux_right_ipin_0.mux_l4_in_0_/X
+ sky130_fd_sc_hd__mux2_1
XTAP_94 VGND VPWR sky130_fd_sc_hd__tapvpwrvgnd_1
XANTENNA_mux_right_ipin_0.mux_l2_in_2__A0 chany_bottom_in[16] VGND VGND VPWR VPWR
+ sky130_fd_sc_hd__diode_2
XANTENNA__24__A chany_top_in[2] VGND VGND VPWR VPWR sky130_fd_sc_hd__diode_2
XFILLER_21_69 VGND VPWR VPWR VGND sky130_ef_sc_hd__decap_12
XFILLER_15_158 VGND VGND VPWR VPWR sky130_fd_sc_hd__fill_1
XFILLER_7_27 VGND VPWR VPWR VGND sky130_ef_sc_hd__decap_12
XANTENNA__19__A chany_bottom_in[18] VGND VGND VPWR VPWR sky130_fd_sc_hd__diode_2
Xmux_right_ipin_0.mux_l3_in_1_ mux_right_ipin_0.mux_l2_in_3_/X mux_right_ipin_0.mux_l2_in_2_/X
+ mux_right_ipin_0.mux_l3_in_1_/S VGND VGND VPWR VPWR mux_right_ipin_0.mux_l3_in_1_/X
+ sky130_fd_sc_hd__mux2_1
XFILLER_14_3 VGND VPWR VPWR VGND sky130_ef_sc_hd__decap_12
XFILLER_27_57 VGND VPWR VPWR VGND sky130_ef_sc_hd__decap_12
XANTENNA__32__A chany_top_in[10] VGND VGND VPWR VPWR sky130_fd_sc_hd__diode_2
Xmux_right_ipin_0.mux_l2_in_2_ chany_bottom_in[16] chany_top_in[10] mux_right_ipin_0.mux_l2_in_3_/S
+ VGND VGND VPWR VPWR mux_right_ipin_0.mux_l2_in_2_/X sky130_fd_sc_hd__mux2_1
XFILLER_1_149 VGND VGND VPWR VPWR sky130_fd_sc_hd__decap_8
XFILLER_1_105 VGND VGND VPWR VPWR sky130_fd_sc_hd__decap_6
XANTENNA__27__A chany_top_in[5] VGND VGND VPWR VPWR sky130_fd_sc_hd__diode_2
XFILLER_5_93 VGND VPWR VPWR VGND sky130_ef_sc_hd__decap_12
XTAP_62 VGND VPWR sky130_fd_sc_hd__tapvpwrvgnd_1
XTAP_73 VGND VPWR sky130_fd_sc_hd__tapvpwrvgnd_1
XFILLER_10_27 VGND VGND VPWR VPWR sky130_fd_sc_hd__fill_1
XTAP_84 VGND VPWR sky130_fd_sc_hd__tapvpwrvgnd_1
XTAP_95 VGND VPWR sky130_fd_sc_hd__tapvpwrvgnd_1
XANTENNA__40__A chany_top_in[18] VGND VGND VPWR VPWR sky130_fd_sc_hd__diode_2
XANTENNA_mux_right_ipin_0.mux_l2_in_2__A1 chany_top_in[10] VGND VGND VPWR VPWR sky130_fd_sc_hd__diode_2
XFILLER_2_83 VGND VGND VPWR VPWR sky130_fd_sc_hd__fill_1
XFILLER_21_15 VGND VPWR VPWR VGND sky130_ef_sc_hd__decap_12
XFILLER_15_115 VGND VGND VPWR VPWR sky130_fd_sc_hd__fill_1
XFILLER_15_104 VGND VGND VPWR VPWR sky130_fd_sc_hd__decap_4
XANTENNA__35__A chany_top_in[13] VGND VGND VPWR VPWR sky130_fd_sc_hd__diode_2
XFILLER_7_39 VGND VPWR VPWR VGND sky130_ef_sc_hd__decap_12
Xmux_right_ipin_0.mux_l3_in_0_ mux_right_ipin_0.mux_l2_in_1_/X mux_right_ipin_0.mux_l2_in_0_/X
+ mux_right_ipin_0.mux_l3_in_1_/S VGND VGND VPWR VPWR mux_right_ipin_0.mux_l3_in_0_/X
+ sky130_fd_sc_hd__mux2_1
XFILLER_16_15 VGND VPWR VPWR VGND sky130_ef_sc_hd__decap_12
XFILLER_7_111 VGND VGND VPWR VPWR sky130_fd_sc_hd__fill_1
XFILLER_11_151 VGND VGND VPWR VPWR sky130_fd_sc_hd__decap_8
XFILLER_27_69 VGND VPWR VPWR VGND sky130_ef_sc_hd__decap_12
XFILLER_4_29 VGND VPWR VPWR VGND sky130_ef_sc_hd__decap_12
Xmux_right_ipin_0.mux_l2_in_1_ chany_bottom_in[10] mux_right_ipin_0.mux_l1_in_2_/X
+ mux_right_ipin_0.mux_l2_in_3_/S VGND VGND VPWR VPWR mux_right_ipin_0.mux_l2_in_1_/X
+ sky130_fd_sc_hd__mux2_1
XFILLER_13_16 VGND VPWR VPWR VGND sky130_ef_sc_hd__decap_12
XFILLER_24_15 VGND VPWR VPWR VGND sky130_ef_sc_hd__decap_12
Xmux_right_ipin_0.mux_l1_in_2_ chany_top_in[4] chany_bottom_in[4] mux_right_ipin_0.mux_l1_in_2_/S
+ VGND VGND VPWR VPWR mux_right_ipin_0.mux_l1_in_2_/X sky130_fd_sc_hd__mux2_1
XANTENNA__38__A chany_top_in[16] VGND VGND VPWR VPWR sky130_fd_sc_hd__diode_2
XTAP_96 VGND VPWR sky130_fd_sc_hd__tapvpwrvgnd_1
XTAP_63 VGND VPWR sky130_fd_sc_hd__tapvpwrvgnd_1
XTAP_74 VGND VPWR sky130_fd_sc_hd__tapvpwrvgnd_1
XTAP_85 VGND VPWR sky130_fd_sc_hd__tapvpwrvgnd_1
XFILLER_27_113 VGND VPWR VPWR VGND sky130_ef_sc_hd__decap_12
XFILLER_19_59 VGND VPWR VPWR VGND sky130_ef_sc_hd__decap_12
XFILLER_19_15 VGND VPWR VPWR VGND sky130_ef_sc_hd__decap_12
XFILLER_4_3 VGND VPWR VPWR VGND sky130_ef_sc_hd__decap_12
XFILLER_21_27 VGND VGND VPWR VPWR sky130_fd_sc_hd__decap_8
XFILLER_20_141 VGND VPWR VPWR VGND sky130_ef_sc_hd__decap_12
XFILLER_16_49 VGND VGND VPWR VPWR sky130_fd_sc_hd__decap_3
XFILLER_16_27 VGND VGND VPWR VPWR sky130_fd_sc_hd__fill_1
Xlogical_tile_io_mode_io__0.ltile_phy_iopad_0.EMBEDDED_IO_HD_0_.OUT_PROTECT_GATE right_width_0_height_0__pin_0_
+ gfpga_pad_EMBEDDED_IO_HD_SOC_DIR VGND VGND VPWR VPWR gfpga_pad_EMBEDDED_IO_HD_SOC_OUT
+ sky130_fd_sc_hd__ebufn_4
XFILLER_8_83 VGND VGND VPWR VPWR sky130_fd_sc_hd__fill_1
XFILLER_27_15 VGND VPWR VPWR VGND sky130_ef_sc_hd__decap_12
XANTENNA_logical_tile_io_mode_io__0.ltile_phy_iopad_0.EMBEDDED_IO_HD_0_.OUT_PROTECT_GATE_A
+ right_width_0_height_0__pin_0_ VGND VGND VPWR VPWR sky130_fd_sc_hd__diode_2
Xmux_right_ipin_0.mux_l2_in_0_ mux_right_ipin_0.mux_l1_in_1_/X mux_right_ipin_0.mux_l1_in_0_/X
+ mux_right_ipin_0.mux_l2_in_3_/S VGND VGND VPWR VPWR mux_right_ipin_0.mux_l2_in_0_/X
+ sky130_fd_sc_hd__mux2_1
XFILLER_13_28 VGND VPWR VPWR VGND sky130_ef_sc_hd__decap_12
XFILLER_24_27 VGND VGND VPWR VPWR sky130_fd_sc_hd__fill_1
XFILLER_5_51 VGND VGND VPWR VPWR sky130_fd_sc_hd__decap_4