* NGSPICE file created from fpga_core.ext - technology: sky130A

* Black-box entry subcircuit for cbx_1__1_ abstract view
.subckt cbx_1__1_ REGIN_FEEDTHROUGH REGOUT_FEEDTHROUGH SC_IN_BOT SC_IN_TOP SC_OUT_BOT
+ SC_OUT_TOP VGND VPWR bottom_grid_pin_0_ bottom_grid_pin_10_ bottom_grid_pin_11_
+ bottom_grid_pin_12_ bottom_grid_pin_13_ bottom_grid_pin_14_ bottom_grid_pin_15_
+ bottom_grid_pin_1_ bottom_grid_pin_2_ bottom_grid_pin_3_ bottom_grid_pin_4_ bottom_grid_pin_5_
+ bottom_grid_pin_6_ bottom_grid_pin_7_ bottom_grid_pin_8_ bottom_grid_pin_9_ ccff_head
+ ccff_tail chanx_left_in[0] chanx_left_in[10] chanx_left_in[11] chanx_left_in[12]
+ chanx_left_in[13] chanx_left_in[14] chanx_left_in[15] chanx_left_in[16] chanx_left_in[17]
+ chanx_left_in[18] chanx_left_in[19] chanx_left_in[1] chanx_left_in[2] chanx_left_in[3]
+ chanx_left_in[4] chanx_left_in[5] chanx_left_in[6] chanx_left_in[7] chanx_left_in[8]
+ chanx_left_in[9] chanx_left_out[0] chanx_left_out[10] chanx_left_out[11] chanx_left_out[12]
+ chanx_left_out[13] chanx_left_out[14] chanx_left_out[15] chanx_left_out[16] chanx_left_out[17]
+ chanx_left_out[18] chanx_left_out[19] chanx_left_out[1] chanx_left_out[2] chanx_left_out[3]
+ chanx_left_out[4] chanx_left_out[5] chanx_left_out[6] chanx_left_out[7] chanx_left_out[8]
+ chanx_left_out[9] chanx_right_in[0] chanx_right_in[10] chanx_right_in[11] chanx_right_in[12]
+ chanx_right_in[13] chanx_right_in[14] chanx_right_in[15] chanx_right_in[16] chanx_right_in[17]
+ chanx_right_in[18] chanx_right_in[19] chanx_right_in[1] chanx_right_in[2] chanx_right_in[3]
+ chanx_right_in[4] chanx_right_in[5] chanx_right_in[6] chanx_right_in[7] chanx_right_in[8]
+ chanx_right_in[9] chanx_right_out[0] chanx_right_out[10] chanx_right_out[11] chanx_right_out[12]
+ chanx_right_out[13] chanx_right_out[14] chanx_right_out[15] chanx_right_out[16]
+ chanx_right_out[17] chanx_right_out[18] chanx_right_out[19] chanx_right_out[1] chanx_right_out[2]
+ chanx_right_out[3] chanx_right_out[4] chanx_right_out[5] chanx_right_out[6] chanx_right_out[7]
+ chanx_right_out[8] chanx_right_out[9] clk_1_N_out clk_1_S_out clk_1_W_in clk_2_E_out
+ clk_2_W_in clk_2_W_out clk_3_E_out clk_3_W_in clk_3_W_out prog_clk_0_N_in prog_clk_0_W_out
+ prog_clk_1_N_out prog_clk_1_S_out prog_clk_1_W_in prog_clk_2_E_out prog_clk_2_W_in
+ prog_clk_2_W_out prog_clk_3_E_out prog_clk_3_W_in prog_clk_3_W_out
.ends

* Black-box entry subcircuit for cby_1__1_ abstract view
.subckt cby_1__1_ Test_en_E_in Test_en_E_out Test_en_N_out Test_en_S_in Test_en_W_in
+ Test_en_W_out VGND VPWR ccff_head ccff_tail chany_bottom_in[0] chany_bottom_in[10]
+ chany_bottom_in[11] chany_bottom_in[12] chany_bottom_in[13] chany_bottom_in[14]
+ chany_bottom_in[15] chany_bottom_in[16] chany_bottom_in[17] chany_bottom_in[18]
+ chany_bottom_in[19] chany_bottom_in[1] chany_bottom_in[2] chany_bottom_in[3] chany_bottom_in[4]
+ chany_bottom_in[5] chany_bottom_in[6] chany_bottom_in[7] chany_bottom_in[8] chany_bottom_in[9]
+ chany_bottom_out[0] chany_bottom_out[10] chany_bottom_out[11] chany_bottom_out[12]
+ chany_bottom_out[13] chany_bottom_out[14] chany_bottom_out[15] chany_bottom_out[16]
+ chany_bottom_out[17] chany_bottom_out[18] chany_bottom_out[19] chany_bottom_out[1]
+ chany_bottom_out[2] chany_bottom_out[3] chany_bottom_out[4] chany_bottom_out[5]
+ chany_bottom_out[6] chany_bottom_out[7] chany_bottom_out[8] chany_bottom_out[9]
+ chany_top_in[0] chany_top_in[10] chany_top_in[11] chany_top_in[12] chany_top_in[13]
+ chany_top_in[14] chany_top_in[15] chany_top_in[16] chany_top_in[17] chany_top_in[18]
+ chany_top_in[19] chany_top_in[1] chany_top_in[2] chany_top_in[3] chany_top_in[4]
+ chany_top_in[5] chany_top_in[6] chany_top_in[7] chany_top_in[8] chany_top_in[9]
+ chany_top_out[0] chany_top_out[10] chany_top_out[11] chany_top_out[12] chany_top_out[13]
+ chany_top_out[14] chany_top_out[15] chany_top_out[16] chany_top_out[17] chany_top_out[18]
+ chany_top_out[19] chany_top_out[1] chany_top_out[2] chany_top_out[3] chany_top_out[4]
+ chany_top_out[5] chany_top_out[6] chany_top_out[7] chany_top_out[8] chany_top_out[9]
+ clk_2_N_out clk_2_S_in clk_2_S_out clk_3_N_out clk_3_S_in clk_3_S_out left_grid_pin_16_
+ left_grid_pin_17_ left_grid_pin_18_ left_grid_pin_19_ left_grid_pin_20_ left_grid_pin_21_
+ left_grid_pin_22_ left_grid_pin_23_ left_grid_pin_24_ left_grid_pin_25_ left_grid_pin_26_
+ left_grid_pin_27_ left_grid_pin_28_ left_grid_pin_29_ left_grid_pin_30_ left_grid_pin_31_
+ prog_clk_0_N_out prog_clk_0_S_out prog_clk_0_W_in prog_clk_2_N_out prog_clk_2_S_in
+ prog_clk_2_S_out prog_clk_3_N_out prog_clk_3_S_in prog_clk_3_S_out
.ends

* Black-box entry subcircuit for sb_1__2_ abstract view
.subckt sb_1__2_ SC_IN_BOT SC_OUT_BOT VGND VPWR bottom_left_grid_pin_42_ bottom_left_grid_pin_43_
+ bottom_left_grid_pin_44_ bottom_left_grid_pin_45_ bottom_left_grid_pin_46_ bottom_left_grid_pin_47_
+ bottom_left_grid_pin_48_ bottom_left_grid_pin_49_ ccff_head ccff_tail chanx_left_in[0]
+ chanx_left_in[10] chanx_left_in[11] chanx_left_in[12] chanx_left_in[13] chanx_left_in[14]
+ chanx_left_in[15] chanx_left_in[16] chanx_left_in[17] chanx_left_in[18] chanx_left_in[19]
+ chanx_left_in[1] chanx_left_in[2] chanx_left_in[3] chanx_left_in[4] chanx_left_in[5]
+ chanx_left_in[6] chanx_left_in[7] chanx_left_in[8] chanx_left_in[9] chanx_left_out[0]
+ chanx_left_out[10] chanx_left_out[11] chanx_left_out[12] chanx_left_out[13] chanx_left_out[14]
+ chanx_left_out[15] chanx_left_out[16] chanx_left_out[17] chanx_left_out[18] chanx_left_out[19]
+ chanx_left_out[1] chanx_left_out[2] chanx_left_out[3] chanx_left_out[4] chanx_left_out[5]
+ chanx_left_out[6] chanx_left_out[7] chanx_left_out[8] chanx_left_out[9] chanx_right_in[0]
+ chanx_right_in[10] chanx_right_in[11] chanx_right_in[12] chanx_right_in[13] chanx_right_in[14]
+ chanx_right_in[15] chanx_right_in[16] chanx_right_in[17] chanx_right_in[18] chanx_right_in[19]
+ chanx_right_in[1] chanx_right_in[2] chanx_right_in[3] chanx_right_in[4] chanx_right_in[5]
+ chanx_right_in[6] chanx_right_in[7] chanx_right_in[8] chanx_right_in[9] chanx_right_out[0]
+ chanx_right_out[10] chanx_right_out[11] chanx_right_out[12] chanx_right_out[13]
+ chanx_right_out[14] chanx_right_out[15] chanx_right_out[16] chanx_right_out[17]
+ chanx_right_out[18] chanx_right_out[19] chanx_right_out[1] chanx_right_out[2] chanx_right_out[3]
+ chanx_right_out[4] chanx_right_out[5] chanx_right_out[6] chanx_right_out[7] chanx_right_out[8]
+ chanx_right_out[9] chany_bottom_in[0] chany_bottom_in[10] chany_bottom_in[11] chany_bottom_in[12]
+ chany_bottom_in[13] chany_bottom_in[14] chany_bottom_in[15] chany_bottom_in[16]
+ chany_bottom_in[17] chany_bottom_in[18] chany_bottom_in[19] chany_bottom_in[1] chany_bottom_in[2]
+ chany_bottom_in[3] chany_bottom_in[4] chany_bottom_in[5] chany_bottom_in[6] chany_bottom_in[7]
+ chany_bottom_in[8] chany_bottom_in[9] chany_bottom_out[0] chany_bottom_out[10] chany_bottom_out[11]
+ chany_bottom_out[12] chany_bottom_out[13] chany_bottom_out[14] chany_bottom_out[15]
+ chany_bottom_out[16] chany_bottom_out[17] chany_bottom_out[18] chany_bottom_out[19]
+ chany_bottom_out[1] chany_bottom_out[2] chany_bottom_out[3] chany_bottom_out[4]
+ chany_bottom_out[5] chany_bottom_out[6] chany_bottom_out[7] chany_bottom_out[8]
+ chany_bottom_out[9] left_bottom_grid_pin_34_ left_bottom_grid_pin_35_ left_bottom_grid_pin_36_
+ left_bottom_grid_pin_37_ left_bottom_grid_pin_38_ left_bottom_grid_pin_39_ left_bottom_grid_pin_40_
+ left_bottom_grid_pin_41_ left_top_grid_pin_1_ prog_clk_0_S_in right_bottom_grid_pin_34_
+ right_bottom_grid_pin_35_ right_bottom_grid_pin_36_ right_bottom_grid_pin_37_ right_bottom_grid_pin_38_
+ right_bottom_grid_pin_39_ right_bottom_grid_pin_40_ right_bottom_grid_pin_41_ right_top_grid_pin_1_
.ends

* Black-box entry subcircuit for grid_clb abstract view
.subckt grid_clb SC_IN_TOP SC_OUT_BOT SC_OUT_TOP Test_en_E_in Test_en_E_out Test_en_W_in
+ Test_en_W_out VGND VPWR bottom_width_0_height_0__pin_50_ bottom_width_0_height_0__pin_51_
+ ccff_head ccff_tail clk_0_N_in clk_0_S_in prog_clk_0_E_out prog_clk_0_N_in prog_clk_0_N_out
+ prog_clk_0_S_in prog_clk_0_S_out prog_clk_0_W_out right_width_0_height_0__pin_16_
+ right_width_0_height_0__pin_17_ right_width_0_height_0__pin_18_ right_width_0_height_0__pin_19_
+ right_width_0_height_0__pin_20_ right_width_0_height_0__pin_21_ right_width_0_height_0__pin_22_
+ right_width_0_height_0__pin_23_ right_width_0_height_0__pin_24_ right_width_0_height_0__pin_25_
+ right_width_0_height_0__pin_26_ right_width_0_height_0__pin_27_ right_width_0_height_0__pin_28_
+ right_width_0_height_0__pin_29_ right_width_0_height_0__pin_30_ right_width_0_height_0__pin_31_
+ right_width_0_height_0__pin_42_lower right_width_0_height_0__pin_42_upper right_width_0_height_0__pin_43_lower
+ right_width_0_height_0__pin_43_upper right_width_0_height_0__pin_44_lower right_width_0_height_0__pin_44_upper
+ right_width_0_height_0__pin_45_lower right_width_0_height_0__pin_45_upper right_width_0_height_0__pin_46_lower
+ right_width_0_height_0__pin_46_upper right_width_0_height_0__pin_47_lower right_width_0_height_0__pin_47_upper
+ right_width_0_height_0__pin_48_lower right_width_0_height_0__pin_48_upper right_width_0_height_0__pin_49_lower
+ right_width_0_height_0__pin_49_upper top_width_0_height_0__pin_0_ top_width_0_height_0__pin_10_
+ top_width_0_height_0__pin_11_ top_width_0_height_0__pin_12_ top_width_0_height_0__pin_13_
+ top_width_0_height_0__pin_14_ top_width_0_height_0__pin_15_ top_width_0_height_0__pin_1_
+ top_width_0_height_0__pin_2_ top_width_0_height_0__pin_32_ top_width_0_height_0__pin_33_
+ top_width_0_height_0__pin_34_lower top_width_0_height_0__pin_34_upper top_width_0_height_0__pin_35_lower
+ top_width_0_height_0__pin_35_upper top_width_0_height_0__pin_36_lower top_width_0_height_0__pin_36_upper
+ top_width_0_height_0__pin_37_lower top_width_0_height_0__pin_37_upper top_width_0_height_0__pin_38_lower
+ top_width_0_height_0__pin_38_upper top_width_0_height_0__pin_39_lower top_width_0_height_0__pin_39_upper
+ top_width_0_height_0__pin_3_ top_width_0_height_0__pin_40_lower top_width_0_height_0__pin_40_upper
+ top_width_0_height_0__pin_41_lower top_width_0_height_0__pin_41_upper top_width_0_height_0__pin_4_
+ top_width_0_height_0__pin_5_ top_width_0_height_0__pin_6_ top_width_0_height_0__pin_7_
+ top_width_0_height_0__pin_8_ top_width_0_height_0__pin_9_
.ends

* Black-box entry subcircuit for sb_1__0_ abstract view
.subckt sb_1__0_ SC_IN_TOP SC_OUT_TOP Test_en_N_out Test_en_S_in VGND VPWR ccff_head
+ ccff_tail chanx_left_in[0] chanx_left_in[10] chanx_left_in[11] chanx_left_in[12]
+ chanx_left_in[13] chanx_left_in[14] chanx_left_in[15] chanx_left_in[16] chanx_left_in[17]
+ chanx_left_in[18] chanx_left_in[19] chanx_left_in[1] chanx_left_in[2] chanx_left_in[3]
+ chanx_left_in[4] chanx_left_in[5] chanx_left_in[6] chanx_left_in[7] chanx_left_in[8]
+ chanx_left_in[9] chanx_left_out[0] chanx_left_out[10] chanx_left_out[11] chanx_left_out[12]
+ chanx_left_out[13] chanx_left_out[14] chanx_left_out[15] chanx_left_out[16] chanx_left_out[17]
+ chanx_left_out[18] chanx_left_out[19] chanx_left_out[1] chanx_left_out[2] chanx_left_out[3]
+ chanx_left_out[4] chanx_left_out[5] chanx_left_out[6] chanx_left_out[7] chanx_left_out[8]
+ chanx_left_out[9] chanx_right_in[0] chanx_right_in[10] chanx_right_in[11] chanx_right_in[12]
+ chanx_right_in[13] chanx_right_in[14] chanx_right_in[15] chanx_right_in[16] chanx_right_in[17]
+ chanx_right_in[18] chanx_right_in[19] chanx_right_in[1] chanx_right_in[2] chanx_right_in[3]
+ chanx_right_in[4] chanx_right_in[5] chanx_right_in[6] chanx_right_in[7] chanx_right_in[8]
+ chanx_right_in[9] chanx_right_out[0] chanx_right_out[10] chanx_right_out[11] chanx_right_out[12]
+ chanx_right_out[13] chanx_right_out[14] chanx_right_out[15] chanx_right_out[16]
+ chanx_right_out[17] chanx_right_out[18] chanx_right_out[19] chanx_right_out[1] chanx_right_out[2]
+ chanx_right_out[3] chanx_right_out[4] chanx_right_out[5] chanx_right_out[6] chanx_right_out[7]
+ chanx_right_out[8] chanx_right_out[9] chany_top_in[0] chany_top_in[10] chany_top_in[11]
+ chany_top_in[12] chany_top_in[13] chany_top_in[14] chany_top_in[15] chany_top_in[16]
+ chany_top_in[17] chany_top_in[18] chany_top_in[19] chany_top_in[1] chany_top_in[2]
+ chany_top_in[3] chany_top_in[4] chany_top_in[5] chany_top_in[6] chany_top_in[7]
+ chany_top_in[8] chany_top_in[9] chany_top_out[0] chany_top_out[10] chany_top_out[11]
+ chany_top_out[12] chany_top_out[13] chany_top_out[14] chany_top_out[15] chany_top_out[16]
+ chany_top_out[17] chany_top_out[18] chany_top_out[19] chany_top_out[1] chany_top_out[2]
+ chany_top_out[3] chany_top_out[4] chany_top_out[5] chany_top_out[6] chany_top_out[7]
+ chany_top_out[8] chany_top_out[9] clk_3_N_out clk_3_S_in left_bottom_grid_pin_11_
+ left_bottom_grid_pin_13_ left_bottom_grid_pin_15_ left_bottom_grid_pin_17_ left_bottom_grid_pin_1_
+ left_bottom_grid_pin_3_ left_bottom_grid_pin_5_ left_bottom_grid_pin_7_ left_bottom_grid_pin_9_
+ prog_clk_0_N_in prog_clk_3_N_out prog_clk_3_S_in right_bottom_grid_pin_11_ right_bottom_grid_pin_13_
+ right_bottom_grid_pin_15_ right_bottom_grid_pin_17_ right_bottom_grid_pin_1_ right_bottom_grid_pin_3_
+ right_bottom_grid_pin_5_ right_bottom_grid_pin_7_ right_bottom_grid_pin_9_ top_left_grid_pin_42_
+ top_left_grid_pin_43_ top_left_grid_pin_44_ top_left_grid_pin_45_ top_left_grid_pin_46_
+ top_left_grid_pin_47_ top_left_grid_pin_48_ top_left_grid_pin_49_
.ends

* Black-box entry subcircuit for cby_2__1_ abstract view
.subckt cby_2__1_ IO_ISOL_N VGND VPWR ccff_head ccff_tail chany_bottom_in[0] chany_bottom_in[10]
+ chany_bottom_in[11] chany_bottom_in[12] chany_bottom_in[13] chany_bottom_in[14]
+ chany_bottom_in[15] chany_bottom_in[16] chany_bottom_in[17] chany_bottom_in[18]
+ chany_bottom_in[19] chany_bottom_in[1] chany_bottom_in[2] chany_bottom_in[3] chany_bottom_in[4]
+ chany_bottom_in[5] chany_bottom_in[6] chany_bottom_in[7] chany_bottom_in[8] chany_bottom_in[9]
+ chany_bottom_out[0] chany_bottom_out[10] chany_bottom_out[11] chany_bottom_out[12]
+ chany_bottom_out[13] chany_bottom_out[14] chany_bottom_out[15] chany_bottom_out[16]
+ chany_bottom_out[17] chany_bottom_out[18] chany_bottom_out[19] chany_bottom_out[1]
+ chany_bottom_out[2] chany_bottom_out[3] chany_bottom_out[4] chany_bottom_out[5]
+ chany_bottom_out[6] chany_bottom_out[7] chany_bottom_out[8] chany_bottom_out[9]
+ chany_top_in[0] chany_top_in[10] chany_top_in[11] chany_top_in[12] chany_top_in[13]
+ chany_top_in[14] chany_top_in[15] chany_top_in[16] chany_top_in[17] chany_top_in[18]
+ chany_top_in[19] chany_top_in[1] chany_top_in[2] chany_top_in[3] chany_top_in[4]
+ chany_top_in[5] chany_top_in[6] chany_top_in[7] chany_top_in[8] chany_top_in[9]
+ chany_top_out[0] chany_top_out[10] chany_top_out[11] chany_top_out[12] chany_top_out[13]
+ chany_top_out[14] chany_top_out[15] chany_top_out[16] chany_top_out[17] chany_top_out[18]
+ chany_top_out[19] chany_top_out[1] chany_top_out[2] chany_top_out[3] chany_top_out[4]
+ chany_top_out[5] chany_top_out[6] chany_top_out[7] chany_top_out[8] chany_top_out[9]
+ gfpga_pad_EMBEDDED_IO_HD_SOC_DIR gfpga_pad_EMBEDDED_IO_HD_SOC_IN gfpga_pad_EMBEDDED_IO_HD_SOC_OUT
+ left_grid_pin_16_ left_grid_pin_17_ left_grid_pin_18_ left_grid_pin_19_ left_grid_pin_20_
+ left_grid_pin_21_ left_grid_pin_22_ left_grid_pin_23_ left_grid_pin_24_ left_grid_pin_25_
+ left_grid_pin_26_ left_grid_pin_27_ left_grid_pin_28_ left_grid_pin_29_ left_grid_pin_30_
+ left_grid_pin_31_ left_width_0_height_0__pin_0_ left_width_0_height_0__pin_1_lower
+ left_width_0_height_0__pin_1_upper prog_clk_0_N_out prog_clk_0_S_out prog_clk_0_W_in
+ right_grid_pin_0_
.ends

* Black-box entry subcircuit for cbx_1__2_ abstract view
.subckt cbx_1__2_ IO_ISOL_N SC_IN_BOT SC_IN_TOP SC_OUT_BOT SC_OUT_TOP VGND VPWR bottom_grid_pin_0_
+ bottom_grid_pin_10_ bottom_grid_pin_11_ bottom_grid_pin_12_ bottom_grid_pin_13_
+ bottom_grid_pin_14_ bottom_grid_pin_15_ bottom_grid_pin_1_ bottom_grid_pin_2_ bottom_grid_pin_3_
+ bottom_grid_pin_4_ bottom_grid_pin_5_ bottom_grid_pin_6_ bottom_grid_pin_7_ bottom_grid_pin_8_
+ bottom_grid_pin_9_ bottom_width_0_height_0__pin_0_ bottom_width_0_height_0__pin_1_lower
+ bottom_width_0_height_0__pin_1_upper ccff_head ccff_tail chanx_left_in[0] chanx_left_in[10]
+ chanx_left_in[11] chanx_left_in[12] chanx_left_in[13] chanx_left_in[14] chanx_left_in[15]
+ chanx_left_in[16] chanx_left_in[17] chanx_left_in[18] chanx_left_in[19] chanx_left_in[1]
+ chanx_left_in[2] chanx_left_in[3] chanx_left_in[4] chanx_left_in[5] chanx_left_in[6]
+ chanx_left_in[7] chanx_left_in[8] chanx_left_in[9] chanx_left_out[0] chanx_left_out[10]
+ chanx_left_out[11] chanx_left_out[12] chanx_left_out[13] chanx_left_out[14] chanx_left_out[15]
+ chanx_left_out[16] chanx_left_out[17] chanx_left_out[18] chanx_left_out[19] chanx_left_out[1]
+ chanx_left_out[2] chanx_left_out[3] chanx_left_out[4] chanx_left_out[5] chanx_left_out[6]
+ chanx_left_out[7] chanx_left_out[8] chanx_left_out[9] chanx_right_in[0] chanx_right_in[10]
+ chanx_right_in[11] chanx_right_in[12] chanx_right_in[13] chanx_right_in[14] chanx_right_in[15]
+ chanx_right_in[16] chanx_right_in[17] chanx_right_in[18] chanx_right_in[19] chanx_right_in[1]
+ chanx_right_in[2] chanx_right_in[3] chanx_right_in[4] chanx_right_in[5] chanx_right_in[6]
+ chanx_right_in[7] chanx_right_in[8] chanx_right_in[9] chanx_right_out[0] chanx_right_out[10]
+ chanx_right_out[11] chanx_right_out[12] chanx_right_out[13] chanx_right_out[14]
+ chanx_right_out[15] chanx_right_out[16] chanx_right_out[17] chanx_right_out[18]
+ chanx_right_out[19] chanx_right_out[1] chanx_right_out[2] chanx_right_out[3] chanx_right_out[4]
+ chanx_right_out[5] chanx_right_out[6] chanx_right_out[7] chanx_right_out[8] chanx_right_out[9]
+ gfpga_pad_EMBEDDED_IO_HD_SOC_DIR gfpga_pad_EMBEDDED_IO_HD_SOC_IN gfpga_pad_EMBEDDED_IO_HD_SOC_OUT
+ prog_clk_0_S_in prog_clk_0_W_out top_grid_pin_0_
.ends

* Black-box entry subcircuit for sb_1__1_ abstract view
.subckt sb_1__1_ Test_en_N_out Test_en_S_in VGND VPWR bottom_left_grid_pin_42_ bottom_left_grid_pin_43_
+ bottom_left_grid_pin_44_ bottom_left_grid_pin_45_ bottom_left_grid_pin_46_ bottom_left_grid_pin_47_
+ bottom_left_grid_pin_48_ bottom_left_grid_pin_49_ ccff_head ccff_tail chanx_left_in[0]
+ chanx_left_in[10] chanx_left_in[11] chanx_left_in[12] chanx_left_in[13] chanx_left_in[14]
+ chanx_left_in[15] chanx_left_in[16] chanx_left_in[17] chanx_left_in[18] chanx_left_in[19]
+ chanx_left_in[1] chanx_left_in[2] chanx_left_in[3] chanx_left_in[4] chanx_left_in[5]
+ chanx_left_in[6] chanx_left_in[7] chanx_left_in[8] chanx_left_in[9] chanx_left_out[0]
+ chanx_left_out[10] chanx_left_out[11] chanx_left_out[12] chanx_left_out[13] chanx_left_out[14]
+ chanx_left_out[15] chanx_left_out[16] chanx_left_out[17] chanx_left_out[18] chanx_left_out[19]
+ chanx_left_out[1] chanx_left_out[2] chanx_left_out[3] chanx_left_out[4] chanx_left_out[5]
+ chanx_left_out[6] chanx_left_out[7] chanx_left_out[8] chanx_left_out[9] chanx_right_in[0]
+ chanx_right_in[10] chanx_right_in[11] chanx_right_in[12] chanx_right_in[13] chanx_right_in[14]
+ chanx_right_in[15] chanx_right_in[16] chanx_right_in[17] chanx_right_in[18] chanx_right_in[19]
+ chanx_right_in[1] chanx_right_in[2] chanx_right_in[3] chanx_right_in[4] chanx_right_in[5]
+ chanx_right_in[6] chanx_right_in[7] chanx_right_in[8] chanx_right_in[9] chanx_right_out[0]
+ chanx_right_out[10] chanx_right_out[11] chanx_right_out[12] chanx_right_out[13]
+ chanx_right_out[14] chanx_right_out[15] chanx_right_out[16] chanx_right_out[17]
+ chanx_right_out[18] chanx_right_out[19] chanx_right_out[1] chanx_right_out[2] chanx_right_out[3]
+ chanx_right_out[4] chanx_right_out[5] chanx_right_out[6] chanx_right_out[7] chanx_right_out[8]
+ chanx_right_out[9] chany_bottom_in[0] chany_bottom_in[10] chany_bottom_in[11] chany_bottom_in[12]
+ chany_bottom_in[13] chany_bottom_in[14] chany_bottom_in[15] chany_bottom_in[16]
+ chany_bottom_in[17] chany_bottom_in[18] chany_bottom_in[19] chany_bottom_in[1] chany_bottom_in[2]
+ chany_bottom_in[3] chany_bottom_in[4] chany_bottom_in[5] chany_bottom_in[6] chany_bottom_in[7]
+ chany_bottom_in[8] chany_bottom_in[9] chany_bottom_out[0] chany_bottom_out[10] chany_bottom_out[11]
+ chany_bottom_out[12] chany_bottom_out[13] chany_bottom_out[14] chany_bottom_out[15]
+ chany_bottom_out[16] chany_bottom_out[17] chany_bottom_out[18] chany_bottom_out[19]
+ chany_bottom_out[1] chany_bottom_out[2] chany_bottom_out[3] chany_bottom_out[4]
+ chany_bottom_out[5] chany_bottom_out[6] chany_bottom_out[7] chany_bottom_out[8]
+ chany_bottom_out[9] chany_top_in[0] chany_top_in[10] chany_top_in[11] chany_top_in[12]
+ chany_top_in[13] chany_top_in[14] chany_top_in[15] chany_top_in[16] chany_top_in[17]
+ chany_top_in[18] chany_top_in[19] chany_top_in[1] chany_top_in[2] chany_top_in[3]
+ chany_top_in[4] chany_top_in[5] chany_top_in[6] chany_top_in[7] chany_top_in[8]
+ chany_top_in[9] chany_top_out[0] chany_top_out[10] chany_top_out[11] chany_top_out[12]
+ chany_top_out[13] chany_top_out[14] chany_top_out[15] chany_top_out[16] chany_top_out[17]
+ chany_top_out[18] chany_top_out[19] chany_top_out[1] chany_top_out[2] chany_top_out[3]
+ chany_top_out[4] chany_top_out[5] chany_top_out[6] chany_top_out[7] chany_top_out[8]
+ chany_top_out[9] clk_1_E_out clk_1_N_in clk_1_W_out clk_2_E_out clk_2_N_in clk_2_N_out
+ clk_2_S_out clk_2_W_out clk_3_E_out clk_3_N_in clk_3_N_out clk_3_S_out clk_3_W_out
+ left_bottom_grid_pin_34_ left_bottom_grid_pin_35_ left_bottom_grid_pin_36_ left_bottom_grid_pin_37_
+ left_bottom_grid_pin_38_ left_bottom_grid_pin_39_ left_bottom_grid_pin_40_ left_bottom_grid_pin_41_
+ prog_clk_0_N_in prog_clk_1_E_out prog_clk_1_N_in prog_clk_1_W_out prog_clk_2_E_out
+ prog_clk_2_N_in prog_clk_2_N_out prog_clk_2_S_out prog_clk_2_W_out prog_clk_3_E_out
+ prog_clk_3_N_in prog_clk_3_N_out prog_clk_3_S_out prog_clk_3_W_out right_bottom_grid_pin_34_
+ right_bottom_grid_pin_35_ right_bottom_grid_pin_36_ right_bottom_grid_pin_37_ right_bottom_grid_pin_38_
+ right_bottom_grid_pin_39_ right_bottom_grid_pin_40_ right_bottom_grid_pin_41_ top_left_grid_pin_42_
+ top_left_grid_pin_43_ top_left_grid_pin_44_ top_left_grid_pin_45_ top_left_grid_pin_46_
+ top_left_grid_pin_47_ top_left_grid_pin_48_ top_left_grid_pin_49_
.ends

* Black-box entry subcircuit for cbx_1__0_ abstract view
.subckt cbx_1__0_ IO_ISOL_N SC_IN_BOT SC_IN_TOP SC_OUT_BOT SC_OUT_TOP VGND VPWR bottom_grid_pin_0_
+ bottom_grid_pin_10_ bottom_grid_pin_12_ bottom_grid_pin_14_ bottom_grid_pin_16_
+ bottom_grid_pin_2_ bottom_grid_pin_4_ bottom_grid_pin_6_ bottom_grid_pin_8_ ccff_head
+ ccff_tail chanx_left_in[0] chanx_left_in[10] chanx_left_in[11] chanx_left_in[12]
+ chanx_left_in[13] chanx_left_in[14] chanx_left_in[15] chanx_left_in[16] chanx_left_in[17]
+ chanx_left_in[18] chanx_left_in[19] chanx_left_in[1] chanx_left_in[2] chanx_left_in[3]
+ chanx_left_in[4] chanx_left_in[5] chanx_left_in[6] chanx_left_in[7] chanx_left_in[8]
+ chanx_left_in[9] chanx_left_out[0] chanx_left_out[10] chanx_left_out[11] chanx_left_out[12]
+ chanx_left_out[13] chanx_left_out[14] chanx_left_out[15] chanx_left_out[16] chanx_left_out[17]
+ chanx_left_out[18] chanx_left_out[19] chanx_left_out[1] chanx_left_out[2] chanx_left_out[3]
+ chanx_left_out[4] chanx_left_out[5] chanx_left_out[6] chanx_left_out[7] chanx_left_out[8]
+ chanx_left_out[9] chanx_right_in[0] chanx_right_in[10] chanx_right_in[11] chanx_right_in[12]
+ chanx_right_in[13] chanx_right_in[14] chanx_right_in[15] chanx_right_in[16] chanx_right_in[17]
+ chanx_right_in[18] chanx_right_in[19] chanx_right_in[1] chanx_right_in[2] chanx_right_in[3]
+ chanx_right_in[4] chanx_right_in[5] chanx_right_in[6] chanx_right_in[7] chanx_right_in[8]
+ chanx_right_in[9] chanx_right_out[0] chanx_right_out[10] chanx_right_out[11] chanx_right_out[12]
+ chanx_right_out[13] chanx_right_out[14] chanx_right_out[15] chanx_right_out[16]
+ chanx_right_out[17] chanx_right_out[18] chanx_right_out[19] chanx_right_out[1] chanx_right_out[2]
+ chanx_right_out[3] chanx_right_out[4] chanx_right_out[5] chanx_right_out[6] chanx_right_out[7]
+ chanx_right_out[8] chanx_right_out[9] gfpga_pad_EMBEDDED_IO_HD_SOC_DIR[0] gfpga_pad_EMBEDDED_IO_HD_SOC_DIR[1]
+ gfpga_pad_EMBEDDED_IO_HD_SOC_DIR[2] gfpga_pad_EMBEDDED_IO_HD_SOC_DIR[3] gfpga_pad_EMBEDDED_IO_HD_SOC_DIR[4]
+ gfpga_pad_EMBEDDED_IO_HD_SOC_DIR[5] gfpga_pad_EMBEDDED_IO_HD_SOC_DIR[6] gfpga_pad_EMBEDDED_IO_HD_SOC_DIR[7]
+ gfpga_pad_EMBEDDED_IO_HD_SOC_DIR[8] gfpga_pad_EMBEDDED_IO_HD_SOC_IN[0] gfpga_pad_EMBEDDED_IO_HD_SOC_IN[1]
+ gfpga_pad_EMBEDDED_IO_HD_SOC_IN[2] gfpga_pad_EMBEDDED_IO_HD_SOC_IN[3] gfpga_pad_EMBEDDED_IO_HD_SOC_IN[4]
+ gfpga_pad_EMBEDDED_IO_HD_SOC_IN[5] gfpga_pad_EMBEDDED_IO_HD_SOC_IN[6] gfpga_pad_EMBEDDED_IO_HD_SOC_IN[7]
+ gfpga_pad_EMBEDDED_IO_HD_SOC_IN[8] gfpga_pad_EMBEDDED_IO_HD_SOC_OUT[0] gfpga_pad_EMBEDDED_IO_HD_SOC_OUT[1]
+ gfpga_pad_EMBEDDED_IO_HD_SOC_OUT[2] gfpga_pad_EMBEDDED_IO_HD_SOC_OUT[3] gfpga_pad_EMBEDDED_IO_HD_SOC_OUT[4]
+ gfpga_pad_EMBEDDED_IO_HD_SOC_OUT[5] gfpga_pad_EMBEDDED_IO_HD_SOC_OUT[6] gfpga_pad_EMBEDDED_IO_HD_SOC_OUT[7]
+ gfpga_pad_EMBEDDED_IO_HD_SOC_OUT[8] prog_clk_0_N_in prog_clk_0_W_out top_width_0_height_0__pin_0_
+ top_width_0_height_0__pin_10_ top_width_0_height_0__pin_11_lower top_width_0_height_0__pin_11_upper
+ top_width_0_height_0__pin_12_ top_width_0_height_0__pin_13_lower top_width_0_height_0__pin_13_upper
+ top_width_0_height_0__pin_14_ top_width_0_height_0__pin_15_lower top_width_0_height_0__pin_15_upper
+ top_width_0_height_0__pin_16_ top_width_0_height_0__pin_17_lower top_width_0_height_0__pin_17_upper
+ top_width_0_height_0__pin_1_lower top_width_0_height_0__pin_1_upper top_width_0_height_0__pin_2_
+ top_width_0_height_0__pin_3_lower top_width_0_height_0__pin_3_upper top_width_0_height_0__pin_4_
+ top_width_0_height_0__pin_5_lower top_width_0_height_0__pin_5_upper top_width_0_height_0__pin_6_
+ top_width_0_height_0__pin_7_lower top_width_0_height_0__pin_7_upper top_width_0_height_0__pin_8_
+ top_width_0_height_0__pin_9_lower top_width_0_height_0__pin_9_upper
.ends

* Black-box entry subcircuit for sb_2__2_ abstract view
.subckt sb_2__2_ SC_IN_BOT SC_OUT_BOT VGND VPWR bottom_left_grid_pin_42_ bottom_left_grid_pin_43_
+ bottom_left_grid_pin_44_ bottom_left_grid_pin_45_ bottom_left_grid_pin_46_ bottom_left_grid_pin_47_
+ bottom_left_grid_pin_48_ bottom_left_grid_pin_49_ bottom_right_grid_pin_1_ ccff_head
+ ccff_tail chanx_left_in[0] chanx_left_in[10] chanx_left_in[11] chanx_left_in[12]
+ chanx_left_in[13] chanx_left_in[14] chanx_left_in[15] chanx_left_in[16] chanx_left_in[17]
+ chanx_left_in[18] chanx_left_in[19] chanx_left_in[1] chanx_left_in[2] chanx_left_in[3]
+ chanx_left_in[4] chanx_left_in[5] chanx_left_in[6] chanx_left_in[7] chanx_left_in[8]
+ chanx_left_in[9] chanx_left_out[0] chanx_left_out[10] chanx_left_out[11] chanx_left_out[12]
+ chanx_left_out[13] chanx_left_out[14] chanx_left_out[15] chanx_left_out[16] chanx_left_out[17]
+ chanx_left_out[18] chanx_left_out[19] chanx_left_out[1] chanx_left_out[2] chanx_left_out[3]
+ chanx_left_out[4] chanx_left_out[5] chanx_left_out[6] chanx_left_out[7] chanx_left_out[8]
+ chanx_left_out[9] chany_bottom_in[0] chany_bottom_in[10] chany_bottom_in[11] chany_bottom_in[12]
+ chany_bottom_in[13] chany_bottom_in[14] chany_bottom_in[15] chany_bottom_in[16]
+ chany_bottom_in[17] chany_bottom_in[18] chany_bottom_in[19] chany_bottom_in[1] chany_bottom_in[2]
+ chany_bottom_in[3] chany_bottom_in[4] chany_bottom_in[5] chany_bottom_in[6] chany_bottom_in[7]
+ chany_bottom_in[8] chany_bottom_in[9] chany_bottom_out[0] chany_bottom_out[10] chany_bottom_out[11]
+ chany_bottom_out[12] chany_bottom_out[13] chany_bottom_out[14] chany_bottom_out[15]
+ chany_bottom_out[16] chany_bottom_out[17] chany_bottom_out[18] chany_bottom_out[19]
+ chany_bottom_out[1] chany_bottom_out[2] chany_bottom_out[3] chany_bottom_out[4]
+ chany_bottom_out[5] chany_bottom_out[6] chany_bottom_out[7] chany_bottom_out[8]
+ chany_bottom_out[9] left_bottom_grid_pin_34_ left_bottom_grid_pin_35_ left_bottom_grid_pin_36_
+ left_bottom_grid_pin_37_ left_bottom_grid_pin_38_ left_bottom_grid_pin_39_ left_bottom_grid_pin_40_
+ left_bottom_grid_pin_41_ left_top_grid_pin_1_ prog_clk_0_S_in
.ends

* Black-box entry subcircuit for sb_2__1_ abstract view
.subckt sb_2__1_ VGND VPWR bottom_left_grid_pin_42_ bottom_left_grid_pin_43_ bottom_left_grid_pin_44_
+ bottom_left_grid_pin_45_ bottom_left_grid_pin_46_ bottom_left_grid_pin_47_ bottom_left_grid_pin_48_
+ bottom_left_grid_pin_49_ bottom_right_grid_pin_1_ ccff_head ccff_tail chanx_left_in[0]
+ chanx_left_in[10] chanx_left_in[11] chanx_left_in[12] chanx_left_in[13] chanx_left_in[14]
+ chanx_left_in[15] chanx_left_in[16] chanx_left_in[17] chanx_left_in[18] chanx_left_in[19]
+ chanx_left_in[1] chanx_left_in[2] chanx_left_in[3] chanx_left_in[4] chanx_left_in[5]
+ chanx_left_in[6] chanx_left_in[7] chanx_left_in[8] chanx_left_in[9] chanx_left_out[0]
+ chanx_left_out[10] chanx_left_out[11] chanx_left_out[12] chanx_left_out[13] chanx_left_out[14]
+ chanx_left_out[15] chanx_left_out[16] chanx_left_out[17] chanx_left_out[18] chanx_left_out[19]
+ chanx_left_out[1] chanx_left_out[2] chanx_left_out[3] chanx_left_out[4] chanx_left_out[5]
+ chanx_left_out[6] chanx_left_out[7] chanx_left_out[8] chanx_left_out[9] chany_bottom_in[0]
+ chany_bottom_in[10] chany_bottom_in[11] chany_bottom_in[12] chany_bottom_in[13]
+ chany_bottom_in[14] chany_bottom_in[15] chany_bottom_in[16] chany_bottom_in[17]
+ chany_bottom_in[18] chany_bottom_in[19] chany_bottom_in[1] chany_bottom_in[2] chany_bottom_in[3]
+ chany_bottom_in[4] chany_bottom_in[5] chany_bottom_in[6] chany_bottom_in[7] chany_bottom_in[8]
+ chany_bottom_in[9] chany_bottom_out[0] chany_bottom_out[10] chany_bottom_out[11]
+ chany_bottom_out[12] chany_bottom_out[13] chany_bottom_out[14] chany_bottom_out[15]
+ chany_bottom_out[16] chany_bottom_out[17] chany_bottom_out[18] chany_bottom_out[19]
+ chany_bottom_out[1] chany_bottom_out[2] chany_bottom_out[3] chany_bottom_out[4]