* NGSPICE file created from grid_clb.ext - technology: sky130A

* Black-box entry subcircuit for sky130_fd_sc_hd__fill_1 abstract view
.subckt sky130_fd_sc_hd__fill_1 VGND VNB VPB VPWR
.ends

* Black-box entry subcircuit for sky130_fd_sc_hd__decap_4 abstract view
.subckt sky130_fd_sc_hd__decap_4 VGND VNB VPB VPWR
.ends

* Black-box entry subcircuit for sky130_fd_sc_hd__mux2_1 abstract view
.subckt sky130_fd_sc_hd__mux2_1 A0 A1 S VGND VNB VPB VPWR X
.ends

* Black-box entry subcircuit for sky130_fd_sc_hd__fill_2 abstract view
.subckt sky130_fd_sc_hd__fill_2 VGND VNB VPB VPWR
.ends

* Black-box entry subcircuit for sky130_fd_sc_hd__dfxtp_1 abstract view
.subckt sky130_fd_sc_hd__dfxtp_1 CLK D VGND VNB VPB VPWR Q
.ends

* Black-box entry subcircuit for sky130_fd_sc_hd__decap_12 abstract view
.subckt sky130_fd_sc_hd__decap_12 VGND VNB VPB VPWR
.ends

* Black-box entry subcircuit for sky130_fd_sc_hd__clkbuf_1 abstract view
.subckt sky130_fd_sc_hd__clkbuf_1 A VGND VNB VPB VPWR X
.ends

* Black-box entry subcircuit for sky130_fd_sc_hd__conb_1 abstract view
.subckt sky130_fd_sc_hd__conb_1 VGND VNB VPB VPWR HI LO
.ends

* Black-box entry subcircuit for sky130_fd_sc_hd__diode_2 abstract view
.subckt sky130_fd_sc_hd__diode_2 DIODE VGND VNB VPB VPWR
.ends

* Black-box entry subcircuit for sky130_fd_sc_hd__decap_8 abstract view
.subckt sky130_fd_sc_hd__decap_8 VGND VNB VPB VPWR
.ends

* Black-box entry subcircuit for sky130_fd_sc_hd__clkbuf_2 abstract view
.subckt sky130_fd_sc_hd__clkbuf_2 A VGND VNB VPB VPWR X
.ends

* Black-box entry subcircuit for sky130_fd_sc_hd__tapvpwrvgnd_1 abstract view
.subckt sky130_fd_sc_hd__tapvpwrvgnd_1 VGND VPWR
.ends

* Black-box entry subcircuit for sky130_fd_sc_hd__mux2_2 abstract view
.subckt sky130_fd_sc_hd__mux2_2 A0 A1 S VGND VNB VPB VPWR X
.ends

* Black-box entry subcircuit for sky130_fd_sc_hd__decap_3 abstract view
.subckt sky130_fd_sc_hd__decap_3 VGND VNB VPB VPWR
.ends

* Black-box entry subcircuit for sky130_fd_sc_hd__sdfxtp_1 abstract view
.subckt sky130_fd_sc_hd__sdfxtp_1 CLK D SCD SCE VGND VNB VPB VPWR Q
.ends

* Black-box entry subcircuit for sky130_fd_sc_hd__buf_8 abstract view
.subckt sky130_fd_sc_hd__buf_8 A VGND VNB VPB VPWR X
.ends

* Black-box entry subcircuit for sky130_fd_sc_hd__mux2_4 abstract view
.subckt sky130_fd_sc_hd__mux2_4 A0 A1 S VGND VNB VPB VPWR X
.ends

* Black-box entry subcircuit for sky130_fd_sc_hd__buf_4 abstract view
.subckt sky130_fd_sc_hd__buf_4 A VGND VNB VPB VPWR X
.ends

* Black-box entry subcircuit for sky130_fd_sc_hd__buf_1 abstract view
.subckt sky130_fd_sc_hd__buf_1 A VGND VNB VPB VPWR X
.ends

* Black-box entry subcircuit for sky130_fd_sc_hd__decap_6 abstract view
.subckt sky130_fd_sc_hd__decap_6 VGND VNB VPB VPWR
.ends

* Black-box entry subcircuit for sky130_fd_sc_hd__buf_6 abstract view
.subckt sky130_fd_sc_hd__buf_6 A VGND VNB VPB VPWR X
.ends

* Black-box entry subcircuit for sky130_fd_sc_hd__clkbuf_16 abstract view
.subckt sky130_fd_sc_hd__clkbuf_16 A VGND VNB VPB VPWR X
.ends

* Black-box entry subcircuit for sky130_fd_sc_hd__sdfxtp_2 abstract view
.subckt sky130_fd_sc_hd__sdfxtp_2 CLK D SCD SCE VGND VNB VPB VPWR Q
.ends

* Black-box entry subcircuit for sky130_fd_sc_hd__or2_1 abstract view
.subckt sky130_fd_sc_hd__or2_1 A B VGND VNB VPB VPWR X
.ends

* Black-box entry subcircuit for sky130_fd_sc_hd__dlygate4sd1_1 abstract view
.subckt sky130_fd_sc_hd__dlygate4sd1_1 A VGND VNB VPB VPWR X
.ends

.subckt grid_clb SC_IN_TOP SC_OUT_BOT SC_OUT_TOP Test_en_E_in Test_en_E_out Test_en_W_in
+ Test_en_W_out bottom_width_0_height_0__pin_50_ bottom_width_0_height_0__pin_51_
+ ccff_head ccff_tail clk_0_N_in clk_0_S_in prog_clk_0_E_out prog_clk_0_N_in prog_clk_0_N_out
+ prog_clk_0_S_in prog_clk_0_S_out prog_clk_0_W_out right_width_0_height_0__pin_16_
+ right_width_0_height_0__pin_17_ right_width_0_height_0__pin_18_ right_width_0_height_0__pin_19_
+ right_width_0_height_0__pin_20_ right_width_0_height_0__pin_21_ right_width_0_height_0__pin_22_
+ right_width_0_height_0__pin_23_ right_width_0_height_0__pin_24_ right_width_0_height_0__pin_25_
+ right_width_0_height_0__pin_26_ right_width_0_height_0__pin_27_ right_width_0_height_0__pin_28_
+ right_width_0_height_0__pin_29_ right_width_0_height_0__pin_30_ right_width_0_height_0__pin_31_
+ right_width_0_height_0__pin_42_lower right_width_0_height_0__pin_42_upper right_width_0_height_0__pin_43_lower
+ right_width_0_height_0__pin_43_upper right_width_0_height_0__pin_44_lower right_width_0_height_0__pin_44_upper
+ right_width_0_height_0__pin_45_lower right_width_0_height_0__pin_45_upper right_width_0_height_0__pin_46_lower
+ right_width_0_height_0__pin_46_upper right_width_0_height_0__pin_47_lower right_width_0_height_0__pin_47_upper
+ right_width_0_height_0__pin_48_lower right_width_0_height_0__pin_48_upper right_width_0_height_0__pin_49_lower
+ right_width_0_height_0__pin_49_upper top_width_0_height_0__pin_0_ top_width_0_height_0__pin_10_
+ top_width_0_height_0__pin_11_ top_width_0_height_0__pin_12_ top_width_0_height_0__pin_13_
+ top_width_0_height_0__pin_14_ top_width_0_height_0__pin_15_ top_width_0_height_0__pin_1_
+ top_width_0_height_0__pin_2_ top_width_0_height_0__pin_32_ top_width_0_height_0__pin_33_
+ top_width_0_height_0__pin_34_lower top_width_0_height_0__pin_34_upper top_width_0_height_0__pin_35_lower
+ top_width_0_height_0__pin_35_upper top_width_0_height_0__pin_36_lower top_width_0_height_0__pin_36_upper
+ top_width_0_height_0__pin_37_lower top_width_0_height_0__pin_37_upper top_width_0_height_0__pin_38_lower
+ top_width_0_height_0__pin_38_upper top_width_0_height_0__pin_39_lower top_width_0_height_0__pin_39_upper
+ top_width_0_height_0__pin_3_ top_width_0_height_0__pin_40_lower top_width_0_height_0__pin_40_upper
+ top_width_0_height_0__pin_41_lower top_width_0_height_0__pin_41_upper top_width_0_height_0__pin_4_
+ top_width_0_height_0__pin_5_ top_width_0_height_0__pin_6_ top_width_0_height_0__pin_7_
+ top_width_0_height_0__pin_8_ top_width_0_height_0__pin_9_ VPWR VGND
XFILLER_22_133 VGND VGND VPWR VPWR sky130_fd_sc_hd__fill_1
XFILLER_26_85 VGND VGND VPWR VPWR sky130_fd_sc_hd__fill_1
XFILLER_26_30 VGND VGND VPWR VPWR sky130_fd_sc_hd__decap_4
Xltile_clb_mode__0.ltile_fle_3.ltile_phy_fabric_0.ltile_frac_logic_0.ltile_frac_lut4_0.frac_lut4_0_.frac_lut4_mux_0_.mux_l1_in_0_
+ ltile_clb_mode__0.ltile_fle_3.ltile_phy_fabric_0.ltile_frac_logic_0.ltile_frac_lut4_0.frac_lut4_0_.frac_lut4_mux_0_.mux_l1_in_0_/A0
+ ltile_clb_mode__0.ltile_fle_3.ltile_phy_fabric_0.ltile_frac_logic_0.ltile_frac_lut4_0.frac_lut4_0_.frac_lut4_mux_0_.mux_l1_in_0_/A1
+ ltile_clb_mode__0.ltile_fle_3.ltile_phy_fabric_0.ltile_frac_logic_0.ltile_frac_lut4_0.frac_lut4_0_.sky130_fd_sc_hd__buf_2_0_/X
+ VGND VGND VPWR VPWR ltile_clb_mode__0.ltile_fle_3.ltile_phy_fabric_0.ltile_frac_logic_0.ltile_frac_lut4_0.frac_lut4_0_.frac_lut4_mux_0_.mux_l1_in_0_/X
+ sky130_fd_sc_hd__mux2_1
XFILLER_27_214 VGND VGND VPWR VPWR sky130_fd_sc_hd__fill_2
Xltile_clb_mode__0.ltile_fle_0.ltile_phy_fabric_0.ltile_frac_logic_0.ltile_frac_lut4_0.frac_lut4_sky130_fd_sc_hd__dfxtp_1_mem.sky130_fd_sc_hd__dfxtp_1_13_
+ ltile_clb_mode__0.ltile_fle_0.ltile_phy_fabric_0.ltile_frac_logic_0.mem_frac_logic_out_0.sky130_fd_sc_hd__dfxtp_1_0_/CLK
+ ltile_clb_mode__0.ltile_fle_0.ltile_phy_fabric_0.ltile_frac_logic_0.ltile_frac_lut4_0.frac_lut4_0_.frac_lut4_mux_0_.mux_l1_in_6_/A1
+ VGND VGND VPWR VPWR ltile_clb_mode__0.ltile_fle_0.ltile_phy_fabric_0.ltile_frac_logic_0.ltile_frac_lut4_0.frac_lut4_0_.frac_lut4_mux_0_.mux_l1_in_6_/A0
+ sky130_fd_sc_hd__dfxtp_1
XFILLER_12_54 VGND VGND VPWR VPWR sky130_fd_sc_hd__decap_12
X_66_ _66_/A VGND VGND VPWR VPWR _66_/X sky130_fd_sc_hd__clkbuf_1
XFILLER_17_9 VGND VGND VPWR VPWR sky130_fd_sc_hd__fill_1
Xclkbuf_2_2_0_ltile_clb_mode__0.ltile_fle_0.ltile_phy_fabric_0.ltile_frac_logic_0.ltile_frac_lut4_0.frac_lut4_sky130_fd_sc_hd__dfxtp_1_mem.prog_clk
+ clkbuf_0_ltile_clb_mode__0.ltile_fle_0.ltile_phy_fabric_0.ltile_frac_logic_0.ltile_frac_lut4_0.frac_lut4_sky130_fd_sc_hd__dfxtp_1_mem.prog_clk/X
+ VGND VGND VPWR VPWR clkbuf_3_5_0_ltile_clb_mode__0.ltile_fle_0.ltile_phy_fabric_0.ltile_frac_logic_0.ltile_frac_lut4_0.frac_lut4_sky130_fd_sc_hd__dfxtp_1_mem.prog_clk/A
+ sky130_fd_sc_hd__clkbuf_1
X_49_ VGND VGND VPWR VPWR _49_/HI _49_/LO sky130_fd_sc_hd__conb_1
Xltile_clb_mode__0.ltile_fle_4.ltile_phy_fabric_0.mux_ff_0_D_0.mux_l2_in_0_ _39_/HI
+ ltile_clb_mode__0.ltile_fle_4.ltile_phy_fabric_0.mux_ff_0_D_0.mux_l1_in_0_/X ltile_clb_mode__0.ltile_fle_4.ltile_phy_fabric_0.mux_ff_0_D_0.mux_l2_in_0_/S
+ VGND VGND VPWR VPWR ltile_clb_mode__0.ltile_fle_4.ltile_phy_fabric_0.mux_ff_0_D_0.mux_l2_in_0_/X
+ sky130_fd_sc_hd__mux2_1
XANTENNA_input18_A right_width_0_height_0__pin_26_ VGND VGND VPWR VPWR sky130_fd_sc_hd__diode_2
Xltile_clb_mode__0.ltile_fle_7.ltile_phy_fabric_0.ltile_frac_logic_0.ltile_frac_lut4_0.frac_lut4_sky130_fd_sc_hd__dfxtp_1_mem.sky130_fd_sc_hd__dfxtp_1_1_
+ ltile_clb_mode__0.ltile_fle_7.ltile_phy_fabric_0.mem_fabric_out_1.sky130_fd_sc_hd__dfxtp_1_1_/CLK
+ ltile_clb_mode__0.ltile_fle_7.ltile_phy_fabric_0.ltile_frac_logic_0.ltile_frac_lut4_0.frac_lut4_0_.frac_lut4_mux_0_.mux_l1_in_0_/A1
+ VGND VGND VPWR VPWR ltile_clb_mode__0.ltile_fle_7.ltile_phy_fabric_0.ltile_frac_logic_0.ltile_frac_lut4_0.frac_lut4_0_.frac_lut4_mux_0_.mux_l1_in_0_/A0
+ sky130_fd_sc_hd__dfxtp_1
Xltile_clb_mode__0.ltile_fle_0.ltile_phy_fabric_0.ltile_frac_logic_0.ltile_frac_lut4_0.frac_lut4_sky130_fd_sc_hd__dfxtp_1_mem.sky130_fd_sc_hd__dfxtp_1_7_
+ clkbuf_4_1_0_ltile_clb_mode__0.ltile_fle_0.ltile_phy_fabric_0.ltile_frac_logic_0.ltile_frac_lut4_0.frac_lut4_sky130_fd_sc_hd__dfxtp_1_mem.prog_clk/X
+ ltile_clb_mode__0.ltile_fle_0.ltile_phy_fabric_0.ltile_frac_logic_0.ltile_frac_lut4_0.frac_lut4_0_.frac_lut4_mux_0_.mux_l1_in_3_/A1
+ VGND VGND VPWR VPWR ltile_clb_mode__0.ltile_fle_0.ltile_phy_fabric_0.ltile_frac_logic_0.ltile_frac_lut4_0.frac_lut4_0_.frac_lut4_mux_0_.mux_l1_in_3_/A0
+ sky130_fd_sc_hd__dfxtp_1
XFILLER_34_142 VGND VGND VPWR VPWR sky130_fd_sc_hd__fill_1
XFILLER_13_3 VGND VGND VPWR VPWR sky130_fd_sc_hd__decap_12
XFILLER_6_78 VGND VGND VPWR VPWR sky130_fd_sc_hd__decap_8
XFILLER_25_175 VGND VGND VPWR VPWR sky130_fd_sc_hd__fill_1
Xoutput64 _72_/X VGND VGND VPWR VPWR right_width_0_height_0__pin_47_upper sky130_fd_sc_hd__clkbuf_2
Xoutput75 _78_/A VGND VGND VPWR VPWR top_width_0_height_0__pin_37_lower sky130_fd_sc_hd__clkbuf_2
XFILLER_31_167 VGND VGND VPWR VPWR sky130_fd_sc_hd__fill_1
XPHY_192 VGND VPWR sky130_fd_sc_hd__tapvpwrvgnd_1
XPHY_181 VGND VPWR sky130_fd_sc_hd__tapvpwrvgnd_1
XPHY_170 VGND VPWR sky130_fd_sc_hd__tapvpwrvgnd_1
Xltile_clb_mode__0.ltile_fle_6.ltile_phy_fabric_0.ltile_frac_logic_0.ltile_frac_lut4_0.frac_lut4_0_.frac_lut4_mux_0_.mux_l1_in_6_
+ ltile_clb_mode__0.ltile_fle_6.ltile_phy_fabric_0.ltile_frac_logic_0.ltile_frac_lut4_0.frac_lut4_0_.frac_lut4_mux_0_.mux_l1_in_6_/A0
+ ltile_clb_mode__0.ltile_fle_6.ltile_phy_fabric_0.ltile_frac_logic_0.ltile_frac_lut4_0.frac_lut4_0_.frac_lut4_mux_0_.mux_l1_in_6_/A1
+ ltile_clb_mode__0.ltile_fle_6.ltile_phy_fabric_0.ltile_frac_logic_0.ltile_frac_lut4_0.frac_lut4_0_.sky130_fd_sc_hd__buf_2_0_/X
+ VGND VGND VPWR VPWR ltile_clb_mode__0.ltile_fle_6.ltile_phy_fabric_0.ltile_frac_logic_0.ltile_frac_lut4_0.frac_lut4_0_.frac_lut4_mux_0_.mux_l1_in_6_/X
+ sky130_fd_sc_hd__mux2_1
XFILLER_16_153 VGND VGND VPWR VPWR sky130_fd_sc_hd__fill_2
Xoutput53 _67_/A VGND VGND VPWR VPWR right_width_0_height_0__pin_42_lower sky130_fd_sc_hd__clkbuf_2
Xoutput42 _66_/A VGND VGND VPWR VPWR SC_OUT_BOT sky130_fd_sc_hd__clkbuf_2
X_82_ _82_/A VGND VGND VPWR VPWR _82_/X sky130_fd_sc_hd__clkbuf_1
Xltile_clb_mode__0.ltile_fle_0.ltile_phy_fabric_0.ltile_frac_logic_0.ltile_frac_lut4_0.frac_lut4_sky130_fd_sc_hd__dfxtp_1_mem.sky130_fd_sc_hd__dfxtp_1_12_
+ ltile_clb_mode__0.ltile_fle_0.ltile_phy_fabric_0.ltile_frac_logic_0.mem_frac_logic_out_0.sky130_fd_sc_hd__dfxtp_1_0_/CLK
+ ltile_clb_mode__0.ltile_fle_0.ltile_phy_fabric_0.ltile_frac_logic_0.ltile_frac_lut4_0.frac_lut4_0_.frac_lut4_mux_0_.mux_l1_in_5_/A0
+ VGND VGND VPWR VPWR ltile_clb_mode__0.ltile_fle_0.ltile_phy_fabric_0.ltile_frac_logic_0.ltile_frac_lut4_0.frac_lut4_0_.frac_lut4_mux_0_.mux_l1_in_6_/A1
+ sky130_fd_sc_hd__dfxtp_1
Xclkbuf_3_3_0_ltile_clb_mode__0.ltile_fle_0.ltile_phy_fabric_0.ltile_frac_logic_0.ltile_frac_lut4_0.frac_lut4_sky130_fd_sc_hd__dfxtp_1_mem.prog_clk
+ clkbuf_3_3_0_ltile_clb_mode__0.ltile_fle_0.ltile_phy_fabric_0.ltile_frac_logic_0.ltile_frac_lut4_0.frac_lut4_sky130_fd_sc_hd__dfxtp_1_mem.prog_clk/A
+ VGND VGND VPWR VPWR clkbuf_4_7_0_ltile_clb_mode__0.ltile_fle_0.ltile_phy_fabric_0.ltile_frac_logic_0.ltile_frac_lut4_0.frac_lut4_sky130_fd_sc_hd__dfxtp_1_mem.prog_clk/A
+ sky130_fd_sc_hd__clkbuf_1
XFILLER_12_66 VGND VGND VPWR VPWR sky130_fd_sc_hd__decap_12
XFILLER_10_115 VGND VGND VPWR VPWR sky130_fd_sc_hd__fill_2
X_65_ _66_/A VGND VGND VPWR VPWR _65_/X sky130_fd_sc_hd__clkbuf_1
Xltile_clb_mode__0.ltile_fle_3.ltile_phy_fabric_0.mem_fabric_out_0.sky130_fd_sc_hd__dfxtp_1_1_
+ ltile_clb_mode__0.ltile_fle_3.ltile_phy_fabric_0.mem_ff_0_D_0.sky130_fd_sc_hd__dfxtp_1_1_/CLK
+ ltile_clb_mode__0.ltile_fle_3.ltile_phy_fabric_0.mux_fabric_out_0.mux_l1_in_0_/S
+ VGND VGND VPWR VPWR ltile_clb_mode__0.ltile_fle_3.ltile_phy_fabric_0.mux_fabric_out_0.mux_l2_in_0_/S
+ sky130_fd_sc_hd__dfxtp_1
XFILLER_15_218 VGND VGND VPWR VPWR sky130_fd_sc_hd__fill_1
XANTENNA_prog_clk_0_W_FTB01_A prog_clk_0_N_in VGND VGND VPWR VPWR sky130_fd_sc_hd__diode_2
Xltile_clb_mode__0.ltile_fle_6.ltile_phy_fabric_0.ltile_frac_logic_0.mux_frac_logic_out_0.mux_l2_in_0_
+ _44_/HI ltile_clb_mode__0.ltile_fle_6.ltile_phy_fabric_0.ltile_frac_logic_0.mux_frac_logic_out_0.mux_l1_in_0_/X
+ ltile_clb_mode__0.ltile_fle_6.ltile_phy_fabric_0.mem_fabric_out_0.sky130_fd_sc_hd__dfxtp_1_0_/D
+ VGND VGND VPWR VPWR ltile_clb_mode__0.ltile_fle_6.ltile_phy_fabric_0.mux_ff_0_D_0.mux_l1_in_0_/A1
+ sky130_fd_sc_hd__mux2_2
XFILLER_0_14 VGND VGND VPWR VPWR sky130_fd_sc_hd__decap_12
XFILLER_2_111 VGND VGND VPWR VPWR sky130_fd_sc_hd__decap_12
XFILLER_2_144 VGND VGND VPWR VPWR sky130_fd_sc_hd__decap_12
XFILLER_2_199 VGND VGND VPWR VPWR sky130_fd_sc_hd__fill_1
X_48_ VGND VGND VPWR VPWR _48_/HI _48_/LO sky130_fd_sc_hd__conb_1
Xltile_clb_mode__0.ltile_fle_3.ltile_phy_fabric_0.mux_fabric_out_1.mux_l2_in_0_ _34_/HI
+ ltile_clb_mode__0.ltile_fle_3.ltile_phy_fabric_0.mux_fabric_out_1.mux_l1_in_0_/X
+ ltile_clb_mode__0.ltile_fle_3.ltile_phy_fabric_0.mux_fabric_out_1.mux_l2_in_0_/S
+ VGND VGND VPWR VPWR _81_/A sky130_fd_sc_hd__mux2_2
Xltile_clb_mode__0.ltile_fle_7.ltile_phy_fabric_0.ltile_frac_logic_0.ltile_frac_lut4_0.frac_lut4_sky130_fd_sc_hd__dfxtp_1_mem.sky130_fd_sc_hd__dfxtp_1_0_
+ ltile_clb_mode__0.ltile_fle_7.ltile_phy_fabric_0.mem_fabric_out_1.sky130_fd_sc_hd__dfxtp_1_1_/CLK
+ ltile_clb_mode__0.ltile_fle_6.ltile_phy_fabric_0.mux_ff_0_D_0.mux_l2_in_0_/S VGND
+ VGND VPWR VPWR ltile_clb_mode__0.ltile_fle_7.ltile_phy_fabric_0.ltile_frac_logic_0.ltile_frac_lut4_0.frac_lut4_0_.frac_lut4_mux_0_.mux_l1_in_0_/A1
+ sky130_fd_sc_hd__dfxtp_1
XANTENNA_output79_A _80_/A VGND VGND VPWR VPWR sky130_fd_sc_hd__diode_2
Xltile_clb_mode__0.ltile_fle_0.ltile_phy_fabric_0.ltile_frac_logic_0.ltile_frac_lut4_0.frac_lut4_sky130_fd_sc_hd__dfxtp_1_mem.sky130_fd_sc_hd__dfxtp_1_6_
+ clkbuf_4_0_0_ltile_clb_mode__0.ltile_fle_0.ltile_phy_fabric_0.ltile_frac_logic_0.ltile_frac_lut4_0.frac_lut4_sky130_fd_sc_hd__dfxtp_1_mem.prog_clk/X
+ ltile_clb_mode__0.ltile_fle_0.ltile_phy_fabric_0.ltile_frac_logic_0.ltile_frac_lut4_0.frac_lut4_0_.frac_lut4_mux_0_.mux_l1_in_2_/A0
+ VGND VGND VPWR VPWR ltile_clb_mode__0.ltile_fle_0.ltile_phy_fabric_0.ltile_frac_logic_0.ltile_frac_lut4_0.frac_lut4_0_.frac_lut4_mux_0_.mux_l1_in_3_/A1
+ sky130_fd_sc_hd__dfxtp_1
Xltile_clb_mode__0.ltile_fle_4.ltile_phy_fabric_0.mux_ff_0_D_0.mux_l1_in_0_ ltile_clb_mode__0.ltile_fle_4.ltile_phy_fabric_0.mux_ff_0_D_0.mux_l1_in_0_/A0
+ ltile_clb_mode__0.ltile_fle_4.ltile_phy_fabric_0.mux_ff_0_D_0.mux_l1_in_0_/A1 ltile_clb_mode__0.ltile_fle_4.ltile_phy_fabric_0.mux_ff_0_D_0.mux_l1_in_0_/S
+ VGND VGND VPWR VPWR ltile_clb_mode__0.ltile_fle_4.ltile_phy_fabric_0.mux_ff_0_D_0.mux_l1_in_0_/X
+ sky130_fd_sc_hd__mux2_1
Xoutput43 _65_/X VGND VGND VPWR VPWR SC_OUT_TOP sky130_fd_sc_hd__clkbuf_2
Xoutput76 _78_/X VGND VGND VPWR VPWR top_width_0_height_0__pin_37_upper sky130_fd_sc_hd__clkbuf_2
XANTENNA_input30_A top_width_0_height_0__pin_15_ VGND VGND VPWR VPWR sky130_fd_sc_hd__diode_2
Xoutput54 _67_/X VGND VGND VPWR VPWR right_width_0_height_0__pin_42_upper sky130_fd_sc_hd__clkbuf_2
XPHY_193 VGND VPWR sky130_fd_sc_hd__tapvpwrvgnd_1
XPHY_182 VGND VPWR sky130_fd_sc_hd__tapvpwrvgnd_1
XPHY_171 VGND VPWR sky130_fd_sc_hd__tapvpwrvgnd_1
XPHY_160 VGND VPWR sky130_fd_sc_hd__tapvpwrvgnd_1
Xoutput65 _73_/A VGND VGND VPWR VPWR right_width_0_height_0__pin_48_lower sky130_fd_sc_hd__clkbuf_2
Xclkbuf_4_4_0_ltile_clb_mode__0.ltile_fle_0.ltile_phy_fabric_0.ltile_frac_logic_0.ltile_frac_lut4_0.frac_lut4_sky130_fd_sc_hd__dfxtp_1_mem.prog_clk
+ clkbuf_4_5_0_ltile_clb_mode__0.ltile_fle_0.ltile_phy_fabric_0.ltile_frac_logic_0.ltile_frac_lut4_0.frac_lut4_sky130_fd_sc_hd__dfxtp_1_mem.prog_clk/A
+ VGND VGND VPWR VPWR ltile_clb_mode__0.ltile_fle_0.ltile_phy_fabric_0.ltile_frac_logic_0.mem_frac_logic_out_0.sky130_fd_sc_hd__dfxtp_1_0_/CLK
+ sky130_fd_sc_hd__clkbuf_1
Xltile_clb_mode__0.ltile_fle_6.ltile_phy_fabric_0.ltile_frac_logic_0.ltile_frac_lut4_0.frac_lut4_0_.frac_lut4_mux_0_.mux_l1_in_5_
+ ltile_clb_mode__0.ltile_fle_6.ltile_phy_fabric_0.ltile_frac_logic_0.ltile_frac_lut4_0.frac_lut4_0_.frac_lut4_mux_0_.mux_l1_in_5_/A0
+ ltile_clb_mode__0.ltile_fle_6.ltile_phy_fabric_0.ltile_frac_logic_0.ltile_frac_lut4_0.frac_lut4_0_.frac_lut4_mux_0_.mux_l1_in_5_/A1
+ ltile_clb_mode__0.ltile_fle_6.ltile_phy_fabric_0.ltile_frac_logic_0.ltile_frac_lut4_0.frac_lut4_0_.sky130_fd_sc_hd__buf_2_0_/X
+ VGND VGND VPWR VPWR ltile_clb_mode__0.ltile_fle_6.ltile_phy_fabric_0.ltile_frac_logic_0.ltile_frac_lut4_0.frac_lut4_0_.frac_lut4_mux_0_.mux_l1_in_5_/X
+ sky130_fd_sc_hd__mux2_1
Xltile_clb_mode__0.ltile_fle_2.ltile_phy_fabric_0.ltile_frac_logic_0.mux_frac_logic_out_0.mux_l2_in_0_
+ _60_/HI ltile_clb_mode__0.ltile_fle_2.ltile_phy_fabric_0.ltile_frac_logic_0.mux_frac_logic_out_0.mux_l1_in_0_/X
+ ltile_clb_mode__0.ltile_fle_2.ltile_phy_fabric_0.mem_fabric_out_0.sky130_fd_sc_hd__dfxtp_1_0_/D
+ VGND VGND VPWR VPWR ltile_clb_mode__0.ltile_fle_2.ltile_phy_fabric_0.mux_ff_0_D_0.mux_l1_in_0_/A1
+ sky130_fd_sc_hd__mux2_1
XFILLER_26_21 VGND VGND VPWR VPWR sky130_fd_sc_hd__decap_8
X_81_ _81_/A VGND VGND VPWR VPWR _81_/X sky130_fd_sc_hd__clkbuf_1
XFILLER_3_58 VGND VGND VPWR VPWR sky130_fd_sc_hd__decap_12
XANTENNA_ltile_clb_mode__0.ltile_fle_0.ltile_phy_fabric_0.ltile_clb_fle_ff_0.sky130_fd_sc_hd__sdfxtp_1_0__SCE
+ Test_en_FTB00/X VGND VGND VPWR VPWR sky130_fd_sc_hd__diode_2
XFILLER_27_238 VGND VGND VPWR VPWR sky130_fd_sc_hd__fill_2
Xltile_clb_mode__0.ltile_fle_0.ltile_phy_fabric_0.ltile_frac_logic_0.ltile_frac_lut4_0.frac_lut4_sky130_fd_sc_hd__dfxtp_1_mem.sky130_fd_sc_hd__dfxtp_1_11_
+ ltile_clb_mode__0.ltile_fle_0.ltile_phy_fabric_0.ltile_frac_logic_0.mem_frac_logic_out_0.sky130_fd_sc_hd__dfxtp_1_0_/CLK
+ ltile_clb_mode__0.ltile_fle_0.ltile_phy_fabric_0.ltile_frac_logic_0.ltile_frac_lut4_0.frac_lut4_0_.frac_lut4_mux_0_.mux_l1_in_5_/A1
+ VGND VGND VPWR VPWR ltile_clb_mode__0.ltile_fle_0.ltile_phy_fabric_0.ltile_frac_logic_0.ltile_frac_lut4_0.frac_lut4_0_.frac_lut4_mux_0_.mux_l1_in_5_/A0
+ sky130_fd_sc_hd__dfxtp_1
XFILLER_12_78 VGND VGND VPWR VPWR sky130_fd_sc_hd__decap_8
XANTENNA_prog_clk_0_S_FTB01_A prog_clk_0_N_in VGND VGND VPWR VPWR sky130_fd_sc_hd__diode_2
XFILLER_10_138 VGND VGND VPWR VPWR sky130_fd_sc_hd__fill_2
XANTENNA_output61_A _71_/A VGND VGND VPWR VPWR sky130_fd_sc_hd__diode_2
X_64_ VGND VGND VPWR VPWR _64_/HI _64_/LO sky130_fd_sc_hd__conb_1
Xltile_clb_mode__0.ltile_fle_3.ltile_phy_fabric_0.mem_fabric_out_0.sky130_fd_sc_hd__dfxtp_1_0_
+ ltile_clb_mode__0.ltile_fle_3.ltile_phy_fabric_0.mem_ff_0_D_0.sky130_fd_sc_hd__dfxtp_1_0_/CLK
+ ltile_clb_mode__0.ltile_fle_3.ltile_phy_fabric_0.mem_fabric_out_0.sky130_fd_sc_hd__dfxtp_1_0_/D
+ VGND VGND VPWR VPWR ltile_clb_mode__0.ltile_fle_3.ltile_phy_fabric_0.mux_fabric_out_0.mux_l1_in_0_/S
+ sky130_fd_sc_hd__dfxtp_1
XFILLER_0_59 VGND VGND VPWR VPWR sky130_fd_sc_hd__decap_12
XFILLER_0_26 VGND VGND VPWR VPWR sky130_fd_sc_hd__decap_3
XFILLER_2_123 VGND VGND VPWR VPWR sky130_fd_sc_hd__decap_12
XFILLER_2_156 VGND VGND VPWR VPWR sky130_fd_sc_hd__decap_8
XFILLER_3_3 VGND VGND VPWR VPWR sky130_fd_sc_hd__decap_12
XANTENNA_ltile_clb_mode__0.ltile_fle_1.ltile_phy_fabric_0.ltile_clb_fle_ff_0.sky130_fd_sc_hd__sdfxtp_1_0__SCE
+ Test_en_FTB00/X VGND VGND VPWR VPWR sky130_fd_sc_hd__diode_2
X_47_ VGND VGND VPWR VPWR _47_/HI _47_/LO sky130_fd_sc_hd__conb_1
XFILLER_20_67 VGND VGND VPWR VPWR sky130_fd_sc_hd__fill_1
Xltile_clb_mode__0.ltile_fle_6.ltile_phy_fabric_0.ltile_frac_logic_0.ltile_frac_lut4_0.frac_lut4_0_.frac_lut4_mux_0_.mux_l2_in_3_
+ ltile_clb_mode__0.ltile_fle_6.ltile_phy_fabric_0.ltile_frac_logic_0.ltile_frac_lut4_0.frac_lut4_0_.frac_lut4_mux_0_.mux_l1_in_7_/X
+ ltile_clb_mode__0.ltile_fle_6.ltile_phy_fabric_0.ltile_frac_logic_0.ltile_frac_lut4_0.frac_lut4_0_.frac_lut4_mux_0_.mux_l1_in_6_/X
+ ltile_clb_mode__0.ltile_fle_6.ltile_phy_fabric_0.ltile_frac_logic_0.ltile_frac_lut4_0.frac_lut4_0_.sky130_fd_sc_hd__buf_2_1_/X
+ VGND VGND VPWR VPWR ltile_clb_mode__0.ltile_fle_6.ltile_phy_fabric_0.ltile_frac_logic_0.ltile_frac_lut4_0.frac_lut4_0_.frac_lut4_mux_0_.mux_l2_in_3_/X
+ sky130_fd_sc_hd__mux2_1
XANTENNA_ltile_clb_mode__0.ltile_fle_2.ltile_phy_fabric_0.ltile_clb_fle_ff_0.sky130_fd_sc_hd__sdfxtp_1_0__SCE
+ Test_en_FTB00/X VGND VGND VPWR VPWR sky130_fd_sc_hd__diode_2
Xltile_clb_mode__0.ltile_fle_0.ltile_phy_fabric_0.ltile_frac_logic_0.ltile_frac_lut4_0.frac_lut4_sky130_fd_sc_hd__dfxtp_1_mem.sky130_fd_sc_hd__dfxtp_1_5_
+ clkbuf_4_0_0_ltile_clb_mode__0.ltile_fle_0.ltile_phy_fabric_0.ltile_frac_logic_0.ltile_frac_lut4_0.frac_lut4_sky130_fd_sc_hd__dfxtp_1_mem.prog_clk/X
+ ltile_clb_mode__0.ltile_fle_0.ltile_phy_fabric_0.ltile_frac_logic_0.ltile_frac_lut4_0.frac_lut4_0_.frac_lut4_mux_0_.mux_l1_in_2_/A1
+ VGND VGND VPWR VPWR ltile_clb_mode__0.ltile_fle_0.ltile_phy_fabric_0.ltile_frac_logic_0.ltile_frac_lut4_0.frac_lut4_0_.frac_lut4_mux_0_.mux_l1_in_2_/A0
+ sky130_fd_sc_hd__dfxtp_1
Xltile_clb_mode__0.ltile_fle_6.ltile_phy_fabric_0.ltile_frac_logic_0.mux_frac_logic_out_0.mux_l1_in_0_
+ ltile_clb_mode__0.ltile_fle_6.ltile_phy_fabric_0.ltile_frac_logic_0.mux_frac_logic_out_0.mux_l1_in_0_/A0
+ ltile_clb_mode__0.ltile_fle_6.ltile_phy_fabric_0.ltile_frac_logic_0.mux_frac_logic_out_0.mux_l1_in_0_/A1
+ ltile_clb_mode__0.ltile_fle_6.ltile_phy_fabric_0.ltile_frac_logic_0.mux_frac_logic_out_0.mux_l1_in_0_/S
+ VGND VGND VPWR VPWR ltile_clb_mode__0.ltile_fle_6.ltile_phy_fabric_0.ltile_frac_logic_0.mux_frac_logic_out_0.mux_l1_in_0_/X
+ sky130_fd_sc_hd__mux2_1
Xltile_clb_mode__0.ltile_fle_3.ltile_phy_fabric_0.mux_fabric_out_1.mux_l1_in_0_ ltile_clb_mode__0.ltile_fle_3.ltile_phy_fabric_0.mux_fabric_out_1.mux_l1_in_0_/A0
+ ltile_clb_mode__0.ltile_fle_4.ltile_phy_fabric_0.mux_ff_0_D_0.mux_l1_in_0_/A0 ltile_clb_mode__0.ltile_fle_3.ltile_phy_fabric_0.mux_fabric_out_1.mux_l1_in_0_/S
+ VGND VGND VPWR VPWR ltile_clb_mode__0.ltile_fle_3.ltile_phy_fabric_0.mux_fabric_out_1.mux_l1_in_0_/X
+ sky130_fd_sc_hd__mux2_1
Xoutput66 _73_/X VGND VGND VPWR VPWR right_width_0_height_0__pin_48_upper sky130_fd_sc_hd__clkbuf_2
Xoutput77 _79_/A VGND VGND VPWR VPWR top_width_0_height_0__pin_38_lower sky130_fd_sc_hd__clkbuf_2
XANTENNA_input23_A right_width_0_height_0__pin_31_ VGND VGND VPWR VPWR sky130_fd_sc_hd__diode_2
XFILLER_31_55 VGND VGND VPWR VPWR sky130_fd_sc_hd__fill_2
Xltile_clb_mode__0.ltile_fle_2.ltile_phy_fabric_0.ltile_frac_logic_0.ltile_frac_lut4_0.frac_lut4_0_.frac_lut4_mux_0_.mux_l1_in_7_
+ ltile_clb_mode__0.ltile_fle_2.ltile_phy_fabric_0.ltile_frac_logic_0.ltile_frac_lut4_0.frac_lut4_0_.frac_lut4_mux_0_.mux_l1_in_7_/A0
+ ltile_clb_mode__0.ltile_fle_2.ltile_phy_fabric_0.ltile_frac_logic_0.ltile_frac_lut4_0.frac_lut4_0_.frac_lut4_mux_0_.mux_l1_in_7_/A1
+ ltile_clb_mode__0.ltile_fle_2.ltile_phy_fabric_0.ltile_frac_logic_0.ltile_frac_lut4_0.frac_lut4_0_.sky130_fd_sc_hd__buf_2_0_/X
+ VGND VGND VPWR VPWR ltile_clb_mode__0.ltile_fle_2.ltile_phy_fabric_0.ltile_frac_logic_0.ltile_frac_lut4_0.frac_lut4_0_.frac_lut4_mux_0_.mux_l1_in_7_/X
+ sky130_fd_sc_hd__mux2_1
Xoutput55 _68_/A VGND VGND VPWR VPWR right_width_0_height_0__pin_43_lower sky130_fd_sc_hd__clkbuf_2
Xoutput44 output44/A VGND VGND VPWR VPWR Test_en_E_out sky130_fd_sc_hd__clkbuf_2
XPHY_194 VGND VPWR sky130_fd_sc_hd__tapvpwrvgnd_1
XPHY_183 VGND VPWR sky130_fd_sc_hd__tapvpwrvgnd_1
XPHY_172 VGND VPWR sky130_fd_sc_hd__tapvpwrvgnd_1
XFILLER_22_147 VGND VGND VPWR VPWR sky130_fd_sc_hd__fill_1
XPHY_161 VGND VPWR sky130_fd_sc_hd__tapvpwrvgnd_1
Xltile_clb_mode__0.ltile_fle_6.ltile_phy_fabric_0.ltile_frac_logic_0.ltile_frac_lut4_0.frac_lut4_0_.frac_lut4_mux_0_.mux_l1_in_4_
+ ltile_clb_mode__0.ltile_fle_6.ltile_phy_fabric_0.ltile_frac_logic_0.ltile_frac_lut4_0.frac_lut4_0_.frac_lut4_mux_0_.mux_l1_in_4_/A0
+ ltile_clb_mode__0.ltile_fle_6.ltile_phy_fabric_0.ltile_frac_logic_0.ltile_frac_lut4_0.frac_lut4_0_.frac_lut4_mux_0_.mux_l1_in_4_/A1
+ ltile_clb_mode__0.ltile_fle_6.ltile_phy_fabric_0.ltile_frac_logic_0.ltile_frac_lut4_0.frac_lut4_0_.sky130_fd_sc_hd__buf_2_0_/X
+ VGND VGND VPWR VPWR ltile_clb_mode__0.ltile_fle_6.ltile_phy_fabric_0.ltile_frac_logic_0.ltile_frac_lut4_0.frac_lut4_0_.frac_lut4_mux_0_.mux_l1_in_4_/X
+ sky130_fd_sc_hd__mux2_2
XPHY_150 VGND VPWR sky130_fd_sc_hd__tapvpwrvgnd_1
Xltile_clb_mode__0.ltile_fle_1.ltile_phy_fabric_0.ltile_clb_fle_ff_0.sky130_fd_sc_hd__sdfxtp_1_0_
+ clkbuf_1_0_0_ltile_clb_mode__0.clb_clk/X ltile_clb_mode__0.ltile_fle_1.ltile_phy_fabric_0.mux_ff_0_D_0.mux_l2_in_0_/X
+ ltile_clb_mode__0.ltile_fle_1.ltile_phy_fabric_0.mux_ff_0_D_0.mux_l1_in_0_/A0 Test_en_FTB00/X
+ VGND VGND VPWR VPWR ltile_clb_mode__0.ltile_fle_1.ltile_phy_fabric_0.mux_fabric_out_0.mux_l1_in_0_/A1
+ sky130_fd_sc_hd__sdfxtp_1
Xltile_clb_mode__0.ltile_fle_1.ltile_phy_fabric_0.ltile_frac_logic_0.ltile_frac_lut4_0.frac_lut4_sky130_fd_sc_hd__dfxtp_1_mem.sky130_fd_sc_hd__dfxtp_1_9_
+ ltile_clb_mode__0.ltile_fle_1.ltile_phy_fabric_0.mem_fabric_out_1.sky130_fd_sc_hd__dfxtp_1_0_/CLK
+ ltile_clb_mode__0.ltile_fle_1.ltile_phy_fabric_0.ltile_frac_logic_0.ltile_frac_lut4_0.frac_lut4_0_.frac_lut4_mux_0_.mux_l1_in_4_/A1
+ VGND VGND VPWR VPWR ltile_clb_mode__0.ltile_fle_1.ltile_phy_fabric_0.ltile_frac_logic_0.ltile_frac_lut4_0.frac_lut4_0_.frac_lut4_mux_0_.mux_l1_in_4_/A0
+ sky130_fd_sc_hd__dfxtp_1
XANTENNA_ltile_clb_mode__0.ltile_fle_3.ltile_phy_fabric_0.ltile_clb_fle_ff_0.sky130_fd_sc_hd__sdfxtp_1_0__SCE
+ Test_en_FTB00/X VGND VGND VPWR VPWR sky130_fd_sc_hd__diode_2
XFILLER_13_136 VGND VGND VPWR VPWR sky130_fd_sc_hd__fill_2
X_80_ _80_/A VGND VGND VPWR VPWR _80_/X sky130_fd_sc_hd__clkbuf_1
Xltile_clb_mode__0.ltile_fle_6.ltile_phy_fabric_0.ltile_frac_logic_0.ltile_frac_lut4_0.frac_lut4_0_.frac_lut4_mux_0_.mux_l4_in_0_
+ ltile_clb_mode__0.ltile_fle_6.ltile_phy_fabric_0.ltile_frac_logic_0.ltile_frac_lut4_0.frac_lut4_0_.frac_lut4_mux_0_.mux_l3_in_1_/X
+ ltile_clb_mode__0.ltile_fle_6.ltile_phy_fabric_0.ltile_frac_logic_0.ltile_frac_lut4_0.frac_lut4_0_.frac_lut4_mux_0_.mux_l3_in_0_/X
+ ltile_clb_mode__0.ltile_fle_6.ltile_phy_fabric_0.ltile_frac_logic_0.ltile_frac_lut4_0.frac_lut4_0_.sky130_fd_sc_hd__buf_2_3_/X
+ VGND VGND VPWR VPWR ltile_clb_mode__0.ltile_fle_6.ltile_phy_fabric_0.ltile_frac_logic_0.ltile_frac_lut4_0.frac_lut4_0_.frac_lut4_mux_0_.mux_l4_in_0_/X
+ sky130_fd_sc_hd__mux2_1
XFILLER_3_15 VGND VGND VPWR VPWR sky130_fd_sc_hd__decap_12
Xltile_clb_mode__0.ltile_fle_0.ltile_phy_fabric_0.ltile_frac_logic_0.ltile_frac_lut4_0.frac_lut4_sky130_fd_sc_hd__dfxtp_1_mem.sky130_fd_sc_hd__dfxtp_1_10_
+ ltile_clb_mode__0.ltile_fle_0.ltile_phy_fabric_0.ltile_frac_logic_0.mem_frac_logic_out_0.sky130_fd_sc_hd__dfxtp_1_0_/CLK
+ ltile_clb_mode__0.ltile_fle_0.ltile_phy_fabric_0.ltile_frac_logic_0.ltile_frac_lut4_0.frac_lut4_0_.frac_lut4_mux_0_.mux_l1_in_4_/A0
+ VGND VGND VPWR VPWR ltile_clb_mode__0.ltile_fle_0.ltile_phy_fabric_0.ltile_frac_logic_0.ltile_frac_lut4_0.frac_lut4_0_.frac_lut4_mux_0_.mux_l1_in_5_/A1
+ sky130_fd_sc_hd__dfxtp_1
XANTENNA_ltile_clb_mode__0.ltile_fle_4.ltile_phy_fabric_0.ltile_clb_fle_ff_0.sky130_fd_sc_hd__sdfxtp_1_0__SCE
+ Test_en_FTB00/X VGND VGND VPWR VPWR sky130_fd_sc_hd__diode_2
X_63_ VGND VGND VPWR VPWR _63_/HI _63_/LO sky130_fd_sc_hd__conb_1
Xltile_clb_mode__0.ltile_fle_2.ltile_phy_fabric_0.ltile_frac_logic_0.mux_frac_logic_out_0.mux_l1_in_0_
+ ltile_clb_mode__0.ltile_fle_2.ltile_phy_fabric_0.ltile_frac_logic_0.mux_frac_logic_out_0.mux_l1_in_0_/A0
+ ltile_clb_mode__0.ltile_fle_2.ltile_phy_fabric_0.ltile_frac_logic_0.mux_frac_logic_out_0.mux_l1_in_0_/A1
+ ltile_clb_mode__0.ltile_fle_2.ltile_phy_fabric_0.ltile_frac_logic_0.mux_frac_logic_out_0.mux_l1_in_0_/S
+ VGND VGND VPWR VPWR ltile_clb_mode__0.ltile_fle_2.ltile_phy_fabric_0.ltile_frac_logic_0.mux_frac_logic_out_0.mux_l1_in_0_/X
+ sky130_fd_sc_hd__mux2_1
Xltile_clb_mode__0.ltile_fle_7.ltile_phy_fabric_0.mux_ff_0_D_0.mux_l2_in_0_ _51_/HI
+ ltile_clb_mode__0.ltile_fle_7.ltile_phy_fabric_0.mux_ff_0_D_0.mux_l1_in_0_/X output48/A
+ VGND VGND VPWR VPWR ltile_clb_mode__0.ltile_fle_7.ltile_phy_fabric_0.mux_ff_0_D_0.mux_l2_in_0_/X
+ sky130_fd_sc_hd__mux2_1
Xltile_clb_mode__0.ltile_fle_6.ltile_phy_fabric_0.ltile_frac_logic_0.ltile_frac_lut4_0.frac_lut4_0_.frac_lut4_mux_0_.mux_l3_in_1_
+ ltile_clb_mode__0.ltile_fle_6.ltile_phy_fabric_0.ltile_frac_logic_0.ltile_frac_lut4_0.frac_lut4_0_.frac_lut4_mux_0_.mux_l3_in_1_/A0
+ ltile_clb_mode__0.ltile_fle_6.ltile_phy_fabric_0.ltile_frac_logic_0.ltile_frac_lut4_0.frac_lut4_0_.frac_lut4_mux_0_.mux_l3_in_1_/A1
+ ltile_clb_mode__0.ltile_fle_6.ltile_phy_fabric_0.ltile_frac_logic_0.ltile_frac_lut4_0.frac_lut4_0_.sky130_fd_sc_hd__buf_2_2_/X
+ VGND VGND VPWR VPWR ltile_clb_mode__0.ltile_fle_6.ltile_phy_fabric_0.ltile_frac_logic_0.ltile_frac_lut4_0.frac_lut4_0_.frac_lut4_mux_0_.mux_l3_in_1_/X