* NGSPICE file created from grid_clb.ext - technology: sky130A

* Black-box entry subcircuit for sky130_fd_sc_hd__tapvpwrvgnd_1 abstract view
.subckt sky130_fd_sc_hd__tapvpwrvgnd_1 VGND VPWR
.ends

* Black-box entry subcircuit for sky130_fd_sc_hd__diode_2 abstract view
.subckt sky130_fd_sc_hd__diode_2 DIODE VGND VNB VPB VPWR
.ends

* Black-box entry subcircuit for sky130_fd_sc_hd__clkbuf_2 abstract view
.subckt sky130_fd_sc_hd__clkbuf_2 A VGND VNB VPB VPWR X
.ends

* Black-box entry subcircuit for sky130_fd_sc_hd__dlymetal6s2s_1 abstract view
.subckt sky130_fd_sc_hd__dlymetal6s2s_1 A VGND VNB VPB VPWR X
.ends

* Black-box entry subcircuit for sky130_fd_sc_hd__mux2_1 abstract view
.subckt sky130_fd_sc_hd__mux2_1 A0 A1 S VGND VNB VPB VPWR X
.ends

* Black-box entry subcircuit for sky130_fd_sc_hd__dfxtp_1 abstract view
.subckt sky130_fd_sc_hd__dfxtp_1 CLK D VGND VNB VPB VPWR Q
.ends

* Black-box entry subcircuit for sky130_fd_sc_hd__clkbuf_1 abstract view
.subckt sky130_fd_sc_hd__clkbuf_1 A VGND VNB VPB VPWR X
.ends

* Black-box entry subcircuit for sky130_fd_sc_hd__fill_1 abstract view
.subckt sky130_fd_sc_hd__fill_1 VGND VNB VPB VPWR
.ends

* Black-box entry subcircuit for sky130_fd_sc_hd__decap_3 abstract view
.subckt sky130_fd_sc_hd__decap_3 VGND VNB VPB VPWR
.ends

* Black-box entry subcircuit for sky130_ef_sc_hd__decap_12 abstract view
.subckt sky130_ef_sc_hd__decap_12 VGND VPWR VPB VNB
.ends

* Black-box entry subcircuit for sky130_fd_sc_hd__decap_4 abstract view
.subckt sky130_fd_sc_hd__decap_4 VGND VNB VPB VPWR
.ends

* Black-box entry subcircuit for sky130_fd_sc_hd__conb_1 abstract view
.subckt sky130_fd_sc_hd__conb_1 VGND VNB VPB VPWR HI LO
.ends

* Black-box entry subcircuit for sky130_fd_sc_hd__buf_2 abstract view
.subckt sky130_fd_sc_hd__buf_2 A VGND VNB VPB VPWR X
.ends

* Black-box entry subcircuit for sky130_fd_sc_hd__fill_2 abstract view
.subckt sky130_fd_sc_hd__fill_2 VGND VNB VPB VPWR
.ends

* Black-box entry subcircuit for sky130_fd_sc_hd__decap_6 abstract view
.subckt sky130_fd_sc_hd__decap_6 VGND VNB VPB VPWR
.ends

* Black-box entry subcircuit for sky130_fd_sc_hd__sdfxtp_1 abstract view
.subckt sky130_fd_sc_hd__sdfxtp_1 CLK D SCD SCE VGND VNB VPB VPWR Q
.ends

* Black-box entry subcircuit for sky130_fd_sc_hd__buf_8 abstract view
.subckt sky130_fd_sc_hd__buf_8 A VGND VNB VPB VPWR X
.ends

* Black-box entry subcircuit for sky130_fd_sc_hd__decap_8 abstract view
.subckt sky130_fd_sc_hd__decap_8 VGND VNB VPB VPWR
.ends

* Black-box entry subcircuit for sky130_fd_sc_hd__buf_4 abstract view
.subckt sky130_fd_sc_hd__buf_4 A VGND VNB VPB VPWR X
.ends

* Black-box entry subcircuit for sky130_fd_sc_hd__buf_6 abstract view
.subckt sky130_fd_sc_hd__buf_6 A VGND VNB VPB VPWR X
.ends

* Black-box entry subcircuit for sky130_fd_sc_hd__sdfxtp_2 abstract view
.subckt sky130_fd_sc_hd__sdfxtp_2 CLK D SCD SCE VGND VNB VPB VPWR Q
.ends

* Black-box entry subcircuit for sky130_fd_sc_hd__dlygate4sd3_1 abstract view
.subckt sky130_fd_sc_hd__dlygate4sd3_1 A VGND VNB VPB VPWR X
.ends

* Black-box entry subcircuit for sky130_fd_sc_hd__or2_1 abstract view
.subckt sky130_fd_sc_hd__or2_1 A B VGND VNB VPB VPWR X
.ends

.subckt grid_clb SC_IN_TOP SC_OUT_BOT SC_OUT_TOP Test_en_E_in Test_en_E_out Test_en_W_in
+ Test_en_W_out VGND VPWR bottom_width_0_height_0__pin_50_ bottom_width_0_height_0__pin_51_
+ ccff_head ccff_tail clk_0_N_in clk_0_S_in prog_clk_0_E_out prog_clk_0_N_in prog_clk_0_N_out
+ prog_clk_0_S_in prog_clk_0_S_out prog_clk_0_W_out right_width_0_height_0__pin_16_
+ right_width_0_height_0__pin_17_ right_width_0_height_0__pin_18_ right_width_0_height_0__pin_19_
+ right_width_0_height_0__pin_20_ right_width_0_height_0__pin_21_ right_width_0_height_0__pin_22_
+ right_width_0_height_0__pin_23_ right_width_0_height_0__pin_24_ right_width_0_height_0__pin_25_
+ right_width_0_height_0__pin_26_ right_width_0_height_0__pin_27_ right_width_0_height_0__pin_28_
+ right_width_0_height_0__pin_29_ right_width_0_height_0__pin_30_ right_width_0_height_0__pin_31_
+ right_width_0_height_0__pin_42_lower right_width_0_height_0__pin_42_upper right_width_0_height_0__pin_43_lower
+ right_width_0_height_0__pin_43_upper right_width_0_height_0__pin_44_lower right_width_0_height_0__pin_44_upper
+ right_width_0_height_0__pin_45_lower right_width_0_height_0__pin_45_upper right_width_0_height_0__pin_46_lower
+ right_width_0_height_0__pin_46_upper right_width_0_height_0__pin_47_lower right_width_0_height_0__pin_47_upper
+ right_width_0_height_0__pin_48_lower right_width_0_height_0__pin_48_upper right_width_0_height_0__pin_49_lower
+ right_width_0_height_0__pin_49_upper top_width_0_height_0__pin_0_ top_width_0_height_0__pin_10_
+ top_width_0_height_0__pin_11_ top_width_0_height_0__pin_12_ top_width_0_height_0__pin_13_
+ top_width_0_height_0__pin_14_ top_width_0_height_0__pin_15_ top_width_0_height_0__pin_1_
+ top_width_0_height_0__pin_2_ top_width_0_height_0__pin_32_ top_width_0_height_0__pin_33_
+ top_width_0_height_0__pin_34_lower top_width_0_height_0__pin_34_upper top_width_0_height_0__pin_35_lower
+ top_width_0_height_0__pin_35_upper top_width_0_height_0__pin_36_lower top_width_0_height_0__pin_36_upper
+ top_width_0_height_0__pin_37_lower top_width_0_height_0__pin_37_upper top_width_0_height_0__pin_38_lower
+ top_width_0_height_0__pin_38_upper top_width_0_height_0__pin_39_lower top_width_0_height_0__pin_39_upper
+ top_width_0_height_0__pin_3_ top_width_0_height_0__pin_40_lower top_width_0_height_0__pin_40_upper
+ top_width_0_height_0__pin_41_lower top_width_0_height_0__pin_41_upper top_width_0_height_0__pin_4_
+ top_width_0_height_0__pin_5_ top_width_0_height_0__pin_6_ top_width_0_height_0__pin_7_
+ top_width_0_height_0__pin_8_ top_width_0_height_0__pin_9_
XTAP_177 VGND VPWR sky130_fd_sc_hd__tapvpwrvgnd_1
XTAP_188 VGND VPWR sky130_fd_sc_hd__tapvpwrvgnd_1
XTAP_199 VGND VPWR sky130_fd_sc_hd__tapvpwrvgnd_1
XANTENNA_ltile_clb_mode__0.ltile_fle_7.ltile_phy_fabric_0.ltile_frac_logic_0.ltile_frac_lut4_0.frac_lut4_sky130_fd_sc_hd__dfxtp_1_mem.sky130_fd_sc_hd__dfxtp_1_6__CLK
+ prog_clk_0_FTB00/X VGND VGND VPWR VPWR sky130_fd_sc_hd__diode_2
XANTENNA_ltile_clb_mode__0.ltile_fle_7.ltile_phy_fabric_0.mem_ff_0_D_0.sky130_fd_sc_hd__dfxtp_1_1__CLK
+ prog_clk_0_FTB00/X VGND VGND VPWR VPWR sky130_fd_sc_hd__diode_2
XANTENNA_output56_A _71_/A VGND VGND VPWR VPWR sky130_fd_sc_hd__diode_2
XANTENNA_ltile_clb_mode__0.ltile_fle_6.ltile_phy_fabric_0.ltile_frac_logic_0.ltile_frac_lut4_0.frac_lut4_sky130_fd_sc_hd__dfxtp_1_mem.sky130_fd_sc_hd__dfxtp_1_9__CLK
+ prog_clk_0_FTB00/X VGND VGND VPWR VPWR sky130_fd_sc_hd__diode_2
Xrepeater82 repeater83/X VGND VGND VPWR VPWR repeater82/X sky130_fd_sc_hd__clkbuf_2
Xrepeater93 repeater93/A VGND VGND VPWR VPWR repeater93/X sky130_fd_sc_hd__dlymetal6s2s_1
Xltile_clb_mode__0.ltile_fle_3.ltile_phy_fabric_0.ltile_frac_logic_0.ltile_frac_lut4_0.frac_lut4_0_.frac_lut4_mux_0_.mux_l1_in_0_
+ ltile_clb_mode__0.ltile_fle_3.ltile_phy_fabric_0.ltile_frac_logic_0.ltile_frac_lut4_0.frac_lut4_0_.frac_lut4_mux_0_.mux_l1_in_0_/A0
+ ltile_clb_mode__0.ltile_fle_3.ltile_phy_fabric_0.ltile_frac_logic_0.ltile_frac_lut4_0.frac_lut4_0_.frac_lut4_mux_0_.mux_l1_in_0_/A1
+ repeater89/A VGND VGND VPWR VPWR ltile_clb_mode__0.ltile_fle_3.ltile_phy_fabric_0.ltile_frac_logic_0.ltile_frac_lut4_0.frac_lut4_0_.frac_lut4_mux_0_.mux_l1_in_0_/X
+ sky130_fd_sc_hd__mux2_1
Xltile_clb_mode__0.ltile_fle_0.ltile_phy_fabric_0.ltile_frac_logic_0.ltile_frac_lut4_0.frac_lut4_sky130_fd_sc_hd__dfxtp_1_mem.sky130_fd_sc_hd__dfxtp_1_13_
+ prog_clk_0_FTB00/X hold6/X VGND VGND VPWR VPWR ltile_clb_mode__0.ltile_fle_0.ltile_phy_fabric_0.ltile_frac_logic_0.ltile_frac_lut4_0.frac_lut4_0_.frac_lut4_mux_0_.mux_l1_in_6_/A0
+ sky130_fd_sc_hd__dfxtp_1
X_66_ _66_/A VGND VGND VPWR VPWR _66_/X sky130_fd_sc_hd__clkbuf_1
XFILLER_24_239 VGND VGND VPWR VPWR sky130_fd_sc_hd__fill_1
XANTENNA_ltile_clb_mode__0.ltile_fle_0.ltile_phy_fabric_0.ltile_frac_logic_0.ltile_frac_lut4_0.frac_lut4_sky130_fd_sc_hd__dfxtp_1_mem.sky130_fd_sc_hd__dfxtp_1_13__CLK
+ prog_clk_0_FTB00/X VGND VGND VPWR VPWR sky130_fd_sc_hd__diode_2
XFILLER_2_187 VGND VGND VPWR VPWR sky130_fd_sc_hd__decap_3
XFILLER_2_121 VGND VPWR VPWR VGND sky130_ef_sc_hd__decap_12
Xltile_clb_mode__0.ltile_fle_4.ltile_phy_fabric_0.mux_ff_0_D_0.mux_l2_in_0_ ltile_clb_mode__0.ltile_fle_4.ltile_phy_fabric_0.mux_ff_0_D_0.mux_l2_in_0_/A0
+ ltile_clb_mode__0.ltile_fle_4.ltile_phy_fabric_0.mux_ff_0_D_0.mux_l1_in_0_/X ltile_clb_mode__0.ltile_fle_4.ltile_phy_fabric_0.mux_ff_0_D_0.mux_l2_in_0_/S
+ VGND VGND VPWR VPWR ltile_clb_mode__0.ltile_fle_4.ltile_phy_fabric_0.mux_ff_0_D_0.mux_l2_in_0_/X
+ sky130_fd_sc_hd__mux2_1
XFILLER_18_75 VGND VGND VPWR VPWR sky130_fd_sc_hd__decap_4
XFILLER_34_85 VGND VGND VPWR VPWR sky130_fd_sc_hd__fill_1
Xltile_clb_mode__0.ltile_fle_6.ltile_phy_fabric_0.mux_fabric_out_1.mux_l2_in_0__120
+ VGND VGND VPWR VPWR ltile_clb_mode__0.ltile_fle_6.ltile_phy_fabric_0.mux_fabric_out_1.mux_l2_in_0_/A0
+ ltile_clb_mode__0.ltile_fle_6.ltile_phy_fabric_0.mux_fabric_out_1.mux_l2_in_0__120/LO
+ sky130_fd_sc_hd__conb_1
Xltile_clb_mode__0.ltile_fle_7.ltile_phy_fabric_0.ltile_frac_logic_0.ltile_frac_lut4_0.frac_lut4_sky130_fd_sc_hd__dfxtp_1_mem.sky130_fd_sc_hd__dfxtp_1_1_
+ prog_clk_0_FTB00/X ltile_clb_mode__0.ltile_fle_7.ltile_phy_fabric_0.ltile_frac_logic_0.ltile_frac_lut4_0.frac_lut4_0_.frac_lut4_mux_0_.mux_l1_in_0_/A1
+ VGND VGND VPWR VPWR ltile_clb_mode__0.ltile_fle_7.ltile_phy_fabric_0.ltile_frac_logic_0.ltile_frac_lut4_0.frac_lut4_0_.frac_lut4_mux_0_.mux_l1_in_0_/A0
+ sky130_fd_sc_hd__dfxtp_1
Xltile_clb_mode__0.ltile_fle_0.ltile_phy_fabric_0.ltile_frac_logic_0.ltile_frac_lut4_0.frac_lut4_sky130_fd_sc_hd__dfxtp_1_mem.sky130_fd_sc_hd__dfxtp_1_7_
+ prog_clk_0_FTB00/X ltile_clb_mode__0.ltile_fle_0.ltile_phy_fabric_0.ltile_frac_logic_0.ltile_frac_lut4_0.frac_lut4_0_.frac_lut4_mux_0_.mux_l1_in_3_/A1
+ VGND VGND VPWR VPWR ltile_clb_mode__0.ltile_fle_0.ltile_phy_fabric_0.ltile_frac_logic_0.ltile_frac_lut4_0.frac_lut4_0_.frac_lut4_mux_0_.mux_l1_in_3_/A0
+ sky130_fd_sc_hd__dfxtp_1
XANTENNA_input18_A right_width_0_height_0__pin_29_ VGND VGND VPWR VPWR sky130_fd_sc_hd__diode_2
XANTENNA_ltile_clb_mode__0.ltile_fle_4.ltile_phy_fabric_0.ltile_frac_logic_0.ltile_frac_lut4_0.frac_lut4_sky130_fd_sc_hd__dfxtp_1_mem.sky130_fd_sc_hd__dfxtp_1_2__CLK
+ prog_clk_0_FTB00/X VGND VGND VPWR VPWR sky130_fd_sc_hd__diode_2
Xoutput64 _75_/A VGND VGND VPWR VPWR top_width_0_height_0__pin_34_lower sky130_fd_sc_hd__buf_2
Xoutput42 _66_/X VGND VGND VPWR VPWR bottom_width_0_height_0__pin_50_ sky130_fd_sc_hd__buf_2
Xoutput53 _69_/X VGND VGND VPWR VPWR right_width_0_height_0__pin_44_upper sky130_fd_sc_hd__buf_2
Xoutput75 _80_/X VGND VGND VPWR VPWR top_width_0_height_0__pin_39_upper sky130_fd_sc_hd__buf_2
XANTENNA_ltile_clb_mode__0.ltile_fle_3.ltile_phy_fabric_0.ltile_frac_logic_0.ltile_frac_lut4_0.frac_lut4_sky130_fd_sc_hd__dfxtp_1_mem.sky130_fd_sc_hd__dfxtp_1_5__CLK
+ prog_clk_0_FTB00/X VGND VGND VPWR VPWR sky130_fd_sc_hd__diode_2
XANTENNA_ltile_clb_mode__0.ltile_fle_2.ltile_phy_fabric_0.ltile_frac_logic_0.mem_frac_logic_out_0.sky130_fd_sc_hd__dfxtp_1_1__CLK
+ prog_clk_0_FTB00/X VGND VGND VPWR VPWR sky130_fd_sc_hd__diode_2
Xltile_clb_mode__0.ltile_fle_6.ltile_phy_fabric_0.ltile_frac_logic_0.ltile_frac_lut4_0.frac_lut4_0_.frac_lut4_mux_0_.mux_l1_in_6_
+ ltile_clb_mode__0.ltile_fle_6.ltile_phy_fabric_0.ltile_frac_logic_0.ltile_frac_lut4_0.frac_lut4_0_.frac_lut4_mux_0_.mux_l1_in_6_/A0
+ ltile_clb_mode__0.ltile_fle_6.ltile_phy_fabric_0.ltile_frac_logic_0.ltile_frac_lut4_0.frac_lut4_0_.frac_lut4_mux_0_.mux_l1_in_6_/A1
+ repeater83/X VGND VGND VPWR VPWR ltile_clb_mode__0.ltile_fle_6.ltile_phy_fabric_0.ltile_frac_logic_0.ltile_frac_lut4_0.frac_lut4_0_.frac_lut4_mux_0_.mux_l1_in_6_/X
+ sky130_fd_sc_hd__mux2_1
XTAP_112 VGND VPWR sky130_fd_sc_hd__tapvpwrvgnd_1
XTAP_101 VGND VPWR sky130_fd_sc_hd__tapvpwrvgnd_1
XTAP_123 VGND VPWR sky130_fd_sc_hd__tapvpwrvgnd_1
XTAP_134 VGND VPWR sky130_fd_sc_hd__tapvpwrvgnd_1
XTAP_145 VGND VPWR sky130_fd_sc_hd__tapvpwrvgnd_1
XTAP_156 VGND VPWR sky130_fd_sc_hd__tapvpwrvgnd_1
XTAP_167 VGND VPWR sky130_fd_sc_hd__tapvpwrvgnd_1
XTAP_178 VGND VPWR sky130_fd_sc_hd__tapvpwrvgnd_1
XTAP_189 VGND VPWR sky130_fd_sc_hd__tapvpwrvgnd_1
XANTENNA_ltile_clb_mode__0.ltile_fle_2.ltile_phy_fabric_0.ltile_frac_logic_0.ltile_frac_lut4_0.frac_lut4_sky130_fd_sc_hd__dfxtp_1_mem.sky130_fd_sc_hd__dfxtp_1_8__CLK
+ prog_clk_0_FTB00/X VGND VGND VPWR VPWR sky130_fd_sc_hd__diode_2
XFILLER_26_42 VGND VGND VPWR VPWR sky130_fd_sc_hd__decap_4
XFILLER_9_138 VGND VGND VPWR VPWR sky130_fd_sc_hd__fill_1
XFILLER_3_57 VGND VPWR VPWR VGND sky130_ef_sc_hd__decap_12
X_82_ _82_/A VGND VGND VPWR VPWR _82_/X sky130_fd_sc_hd__clkbuf_1
Xrepeater94 repeater95/X VGND VGND VPWR VPWR repeater94/X sky130_fd_sc_hd__clkbuf_2
Xrepeater83 repeater83/A VGND VGND VPWR VPWR repeater83/X sky130_fd_sc_hd__dlymetal6s2s_1
Xltile_clb_mode__0.ltile_fle_0.ltile_phy_fabric_0.ltile_frac_logic_0.ltile_frac_lut4_0.frac_lut4_sky130_fd_sc_hd__dfxtp_1_mem.sky130_fd_sc_hd__dfxtp_1_12_
+ prog_clk_0_FTB00/X ltile_clb_mode__0.ltile_fle_0.ltile_phy_fabric_0.ltile_frac_logic_0.ltile_frac_lut4_0.frac_lut4_0_.frac_lut4_mux_0_.mux_l1_in_5_/A0
+ VGND VGND VPWR VPWR hold6/A sky130_fd_sc_hd__dfxtp_1
XFILLER_12_88 VGND VGND VPWR VPWR sky130_fd_sc_hd__fill_1
X_65_ _66_/A VGND VGND VPWR VPWR _65_/X sky130_fd_sc_hd__clkbuf_1
XANTENNA_prog_clk_0_W_FTB01_A prog_clk_0_N_in VGND VGND VPWR VPWR sky130_fd_sc_hd__diode_2
XANTENNA_ltile_clb_mode__0.ltile_fle_7.ltile_phy_fabric_0.ltile_frac_logic_0.ltile_frac_lut4_0.frac_lut4_sky130_fd_sc_hd__dfxtp_1_mem.sky130_fd_sc_hd__dfxtp_1_11__CLK
+ prog_clk_0_FTB00/X VGND VGND VPWR VPWR sky130_fd_sc_hd__diode_2
Xltile_clb_mode__0.ltile_fle_3.ltile_phy_fabric_0.mem_fabric_out_0.sky130_fd_sc_hd__dfxtp_1_1_
+ prog_clk_0_FTB00/X ltile_clb_mode__0.ltile_fle_3.ltile_phy_fabric_0.mux_fabric_out_0.mux_l1_in_0_/S
+ VGND VGND VPWR VPWR ltile_clb_mode__0.ltile_fle_3.ltile_phy_fabric_0.mux_fabric_out_0.mux_l2_in_0_/S
+ sky130_fd_sc_hd__dfxtp_1
XFILLER_23_65 VGND VGND VPWR VPWR sky130_fd_sc_hd__fill_1
XFILLER_23_76 VGND VGND VPWR VPWR sky130_fd_sc_hd__fill_2
XFILLER_2_133 VGND VGND VPWR VPWR sky130_fd_sc_hd__decap_6
XFILLER_9_23 VGND VGND VPWR VPWR sky130_fd_sc_hd__fill_1
Xltile_clb_mode__0.ltile_fle_6.ltile_phy_fabric_0.ltile_frac_logic_0.mux_frac_logic_out_0.mux_l2_in_0_
+ ltile_clb_mode__0.ltile_fle_6.ltile_phy_fabric_0.ltile_frac_logic_0.mux_frac_logic_out_0.mux_l2_in_0_/A0
+ ltile_clb_mode__0.ltile_fle_6.ltile_phy_fabric_0.ltile_frac_logic_0.mux_frac_logic_out_0.mux_l1_in_0_/X
+ ltile_clb_mode__0.ltile_fle_6.ltile_phy_fabric_0.mem_fabric_out_0.sky130_fd_sc_hd__dfxtp_1_0_/D
+ VGND VGND VPWR VPWR ltile_clb_mode__0.ltile_fle_6.ltile_phy_fabric_0.mux_ff_0_D_0.mux_l1_in_0_/A1
+ sky130_fd_sc_hd__mux2_1
XANTENNA_ltile_clb_mode__0.ltile_fle_2.ltile_phy_fabric_0.mem_ff_0_D_0.sky130_fd_sc_hd__dfxtp_1_1__CLK
+ prog_clk_0_FTB00/X VGND VGND VPWR VPWR sky130_fd_sc_hd__diode_2
Xltile_clb_mode__0.ltile_fle_3.ltile_phy_fabric_0.mux_fabric_out_1.mux_l2_in_0_ ltile_clb_mode__0.ltile_fle_3.ltile_phy_fabric_0.mux_fabric_out_1.mux_l2_in_0_/A0
+ ltile_clb_mode__0.ltile_fle_3.ltile_phy_fabric_0.mux_fabric_out_1.mux_l1_in_0_/X
+ ltile_clb_mode__0.ltile_fle_3.ltile_phy_fabric_0.mux_fabric_out_1.mux_l2_in_0_/S
+ VGND VGND VPWR VPWR _81_/A sky130_fd_sc_hd__mux2_1
XANTENNA_ltile_clb_mode__0.ltile_fle_0.ltile_phy_fabric_0.ltile_frac_logic_0.ltile_frac_lut4_0.frac_lut4_sky130_fd_sc_hd__dfxtp_1_mem.sky130_fd_sc_hd__dfxtp_1_1__CLK
+ prog_clk_0_FTB00/X VGND VGND VPWR VPWR sky130_fd_sc_hd__diode_2
Xltile_clb_mode__0.ltile_fle_7.ltile_phy_fabric_0.ltile_frac_logic_0.ltile_frac_lut4_0.frac_lut4_sky130_fd_sc_hd__dfxtp_1_mem.sky130_fd_sc_hd__dfxtp_1_0_
+ prog_clk_0_FTB00/X ltile_clb_mode__0.ltile_fle_6.ltile_phy_fabric_0.mux_ff_0_D_0.mux_l2_in_0_/S
+ VGND VGND VPWR VPWR ltile_clb_mode__0.ltile_fle_7.ltile_phy_fabric_0.ltile_frac_logic_0.ltile_frac_lut4_0.frac_lut4_0_.frac_lut4_mux_0_.mux_l1_in_0_/A1
+ sky130_fd_sc_hd__dfxtp_1
Xltile_clb_mode__0.ltile_fle_0.ltile_phy_fabric_0.ltile_frac_logic_0.ltile_frac_lut4_0.frac_lut4_sky130_fd_sc_hd__dfxtp_1_mem.sky130_fd_sc_hd__dfxtp_1_6_
+ prog_clk_0_FTB00/X ltile_clb_mode__0.ltile_fle_0.ltile_phy_fabric_0.ltile_frac_logic_0.ltile_frac_lut4_0.frac_lut4_0_.frac_lut4_mux_0_.mux_l1_in_2_/A0
+ VGND VGND VPWR VPWR ltile_clb_mode__0.ltile_fle_0.ltile_phy_fabric_0.ltile_frac_logic_0.ltile_frac_lut4_0.frac_lut4_0_.frac_lut4_mux_0_.mux_l1_in_3_/A1
+ sky130_fd_sc_hd__dfxtp_1
Xltile_clb_mode__0.ltile_fle_4.ltile_phy_fabric_0.mux_ff_0_D_0.mux_l1_in_0_ ltile_clb_mode__0.ltile_fle_4.ltile_phy_fabric_0.mux_ff_0_D_0.mux_l1_in_0_/A0
+ ltile_clb_mode__0.ltile_fle_4.ltile_phy_fabric_0.mux_ff_0_D_0.mux_l1_in_0_/A1 ltile_clb_mode__0.ltile_fle_4.ltile_phy_fabric_0.mux_ff_0_D_0.mux_l1_in_0_/S
+ VGND VGND VPWR VPWR ltile_clb_mode__0.ltile_fle_4.ltile_phy_fabric_0.mux_ff_0_D_0.mux_l1_in_0_/X
+ sky130_fd_sc_hd__mux2_1
Xltile_clb_mode__0.ltile_fle_5.ltile_phy_fabric_0.mux_ff_0_D_0.mux_l2_in_0__117 VGND
+ VGND VPWR VPWR ltile_clb_mode__0.ltile_fle_5.ltile_phy_fabric_0.mux_ff_0_D_0.mux_l2_in_0_/A0
+ ltile_clb_mode__0.ltile_fle_5.ltile_phy_fabric_0.mux_ff_0_D_0.mux_l2_in_0__117/LO
+ sky130_fd_sc_hd__conb_1
XFILLER_25_165 VGND VGND VPWR VPWR sky130_fd_sc_hd__fill_1
XFILLER_25_176 VGND VGND VPWR VPWR sky130_fd_sc_hd__fill_1
XANTENNA_ltile_clb_mode__0.ltile_fle_2.ltile_phy_fabric_0.ltile_frac_logic_0.ltile_frac_lut4_0.frac_lut4_sky130_fd_sc_hd__dfxtp_1_mem.sky130_fd_sc_hd__dfxtp_1_10__CLK
+ prog_clk_0_FTB00/X VGND VGND VPWR VPWR sky130_fd_sc_hd__diode_2
Xoutput43 output43/A VGND VGND VPWR VPWR ccff_tail sky130_fd_sc_hd__buf_2
Xoutput54 _70_/A VGND VGND VPWR VPWR right_width_0_height_0__pin_45_lower sky130_fd_sc_hd__buf_2
XFILLER_0_231 VGND VGND VPWR VPWR sky130_fd_sc_hd__fill_1
Xoutput76 _81_/A VGND VGND VPWR VPWR top_width_0_height_0__pin_40_lower sky130_fd_sc_hd__buf_2
Xoutput65 _75_/X VGND VGND VPWR VPWR top_width_0_height_0__pin_34_upper sky130_fd_sc_hd__buf_2
XANTENNA_input30_A top_width_0_height_0__pin_32_ VGND VGND VPWR VPWR sky130_fd_sc_hd__diode_2
XFILLER_16_143 VGND VGND VPWR VPWR sky130_fd_sc_hd__decap_6
XANTENNA_ltile_clb_mode__0.ltile_fle_6.ltile_phy_fabric_0.ltile_frac_logic_0.ltile_frac_lut4_0.frac_lut4_sky130_fd_sc_hd__dfxtp_1_mem.sky130_fd_sc_hd__dfxtp_1_14__CLK
+ prog_clk_0_FTB00/X VGND VGND VPWR VPWR sky130_fd_sc_hd__diode_2
XANTENNA_ltile_clb_mode__0.ltile_fle_7.ltile_phy_fabric_0.mem_fabric_out_0.sky130_fd_sc_hd__dfxtp_1_0__CLK
+ prog_clk_0_FTB00/X VGND VGND VPWR VPWR sky130_fd_sc_hd__diode_2
Xltile_clb_mode__0.ltile_fle_6.ltile_phy_fabric_0.ltile_frac_logic_0.ltile_frac_lut4_0.frac_lut4_0_.frac_lut4_mux_0_.mux_l1_in_5_
+ ltile_clb_mode__0.ltile_fle_6.ltile_phy_fabric_0.ltile_frac_logic_0.ltile_frac_lut4_0.frac_lut4_0_.frac_lut4_mux_0_.mux_l1_in_5_/A0
+ ltile_clb_mode__0.ltile_fle_6.ltile_phy_fabric_0.ltile_frac_logic_0.ltile_frac_lut4_0.frac_lut4_0_.frac_lut4_mux_0_.mux_l1_in_5_/A1
+ repeater82/X VGND VGND VPWR VPWR ltile_clb_mode__0.ltile_fle_6.ltile_phy_fabric_0.ltile_frac_logic_0.ltile_frac_lut4_0.frac_lut4_0_.frac_lut4_mux_0_.mux_l1_in_5_/X
+ sky130_fd_sc_hd__mux2_1
XTAP_113 VGND VPWR sky130_fd_sc_hd__tapvpwrvgnd_1
XTAP_102 VGND VPWR sky130_fd_sc_hd__tapvpwrvgnd_1
XTAP_124 VGND VPWR sky130_fd_sc_hd__tapvpwrvgnd_1
XTAP_135 VGND VPWR sky130_fd_sc_hd__tapvpwrvgnd_1
XTAP_146 VGND VPWR sky130_fd_sc_hd__tapvpwrvgnd_1
XTAP_157 VGND VPWR sky130_fd_sc_hd__tapvpwrvgnd_1
XTAP_168 VGND VPWR sky130_fd_sc_hd__tapvpwrvgnd_1
XTAP_179 VGND VPWR sky130_fd_sc_hd__tapvpwrvgnd_1
Xltile_clb_mode__0.ltile_fle_2.ltile_phy_fabric_0.ltile_frac_logic_0.mux_frac_logic_out_0.mux_l2_in_0_
+ ltile_clb_mode__0.ltile_fle_2.ltile_phy_fabric_0.ltile_frac_logic_0.mux_frac_logic_out_0.mux_l2_in_0_/A0
+ ltile_clb_mode__0.ltile_fle_2.ltile_phy_fabric_0.ltile_frac_logic_0.mux_frac_logic_out_0.mux_l1_in_0_/X
+ ltile_clb_mode__0.ltile_fle_2.ltile_phy_fabric_0.mem_fabric_out_0.sky130_fd_sc_hd__dfxtp_1_0_/D
+ VGND VGND VPWR VPWR ltile_clb_mode__0.ltile_fle_2.ltile_phy_fabric_0.mux_ff_0_D_0.mux_l1_in_0_/A1
+ sky130_fd_sc_hd__mux2_1
XFILLER_9_106 VGND VGND VPWR VPWR sky130_fd_sc_hd__fill_1
XFILLER_26_65 VGND VGND VPWR VPWR sky130_fd_sc_hd__decap_3
XFILLER_26_87 VGND VGND VPWR VPWR sky130_fd_sc_hd__decap_4
XFILLER_3_69 VGND VPWR VPWR VGND sky130_ef_sc_hd__decap_12
X_81_ _81_/A VGND VGND VPWR VPWR _81_/X sky130_fd_sc_hd__clkbuf_1
Xrepeater84 repeater85/X VGND VGND VPWR VPWR repeater84/X sky130_fd_sc_hd__clkbuf_2
Xrepeater95 repeater95/A VGND VGND VPWR VPWR repeater95/X sky130_fd_sc_hd__clkbuf_2
Xltile_clb_mode__0.ltile_fle_0.ltile_phy_fabric_0.ltile_frac_logic_0.ltile_frac_lut4_0.frac_lut4_sky130_fd_sc_hd__dfxtp_1_mem.sky130_fd_sc_hd__dfxtp_1_11_
+ prog_clk_0_FTB00/X ltile_clb_mode__0.ltile_fle_0.ltile_phy_fabric_0.ltile_frac_logic_0.ltile_frac_lut4_0.frac_lut4_0_.frac_lut4_mux_0_.mux_l1_in_5_/A1
+ VGND VGND VPWR VPWR ltile_clb_mode__0.ltile_fle_0.ltile_phy_fabric_0.ltile_frac_logic_0.ltile_frac_lut4_0.frac_lut4_0_.frac_lut4_mux_0_.mux_l1_in_5_/A0
+ sky130_fd_sc_hd__dfxtp_1
XANTENNA_prog_clk_0_S_FTB01_A prog_clk_0_N_in VGND VGND VPWR VPWR sky130_fd_sc_hd__diode_2
XANTENNA_ltile_clb_mode__0.ltile_fle_0.ltile_phy_fabric_0.ltile_clb_fle_ff_0.sky130_fd_sc_hd__sdfxtp_1_0__SCE
+ repeater103/A VGND VGND VPWR VPWR sky130_fd_sc_hd__diode_2
Xltile_clb_mode__0.ltile_fle_3.ltile_phy_fabric_0.mem_fabric_out_0.sky130_fd_sc_hd__dfxtp_1_0_
+ prog_clk_0_FTB00/X ltile_clb_mode__0.ltile_fle_3.ltile_phy_fabric_0.mem_fabric_out_0.sky130_fd_sc_hd__dfxtp_1_0_/D
+ VGND VGND VPWR VPWR ltile_clb_mode__0.ltile_fle_3.ltile_phy_fabric_0.mux_fabric_out_0.mux_l1_in_0_/S
+ sky130_fd_sc_hd__dfxtp_1
XFILLER_3_3 VGND VPWR VPWR VGND sky130_ef_sc_hd__decap_12
XANTENNA_ltile_clb_mode__0.ltile_fle_1.ltile_phy_fabric_0.ltile_frac_logic_0.ltile_frac_lut4_0.frac_lut4_sky130_fd_sc_hd__dfxtp_1_mem.sky130_fd_sc_hd__dfxtp_1_13__CLK
+ prog_clk_0_FTB00/X VGND VGND VPWR VPWR sky130_fd_sc_hd__diode_2
XFILLER_36_3 VGND VGND VPWR VPWR sky130_fd_sc_hd__decap_3
XANTENNA_ltile_clb_mode__0.ltile_fle_7.ltile_phy_fabric_0.ltile_frac_logic_0.mem_frac_logic_out_0.sky130_fd_sc_hd__dfxtp_1_1__CLK
+ prog_clk_0_FTB00/X VGND VGND VPWR VPWR sky130_fd_sc_hd__diode_2
Xltile_clb_mode__0.ltile_fle_6.ltile_phy_fabric_0.ltile_frac_logic_0.ltile_frac_lut4_0.frac_lut4_0_.frac_lut4_mux_0_.mux_l2_in_3_
+ ltile_clb_mode__0.ltile_fle_6.ltile_phy_fabric_0.ltile_frac_logic_0.ltile_frac_lut4_0.frac_lut4_0_.frac_lut4_mux_0_.mux_l1_in_7_/X
+ ltile_clb_mode__0.ltile_fle_6.ltile_phy_fabric_0.ltile_frac_logic_0.ltile_frac_lut4_0.frac_lut4_0_.frac_lut4_mux_0_.mux_l1_in_6_/X
+ ltile_clb_mode__0.ltile_fle_6.ltile_phy_fabric_0.ltile_frac_logic_0.ltile_frac_lut4_0.frac_lut4_0_.sky130_fd_sc_hd__buf_2_1_/X
+ VGND VGND VPWR VPWR ltile_clb_mode__0.ltile_fle_6.ltile_phy_fabric_0.ltile_frac_logic_0.ltile_frac_lut4_0.frac_lut4_0_.frac_lut4_mux_0_.mux_l2_in_3_/X
+ sky130_fd_sc_hd__mux2_1
XANTENNA_ltile_clb_mode__0.ltile_fle_7.ltile_phy_fabric_0.ltile_frac_logic_0.ltile_frac_lut4_0.frac_lut4_sky130_fd_sc_hd__dfxtp_1_mem.sky130_fd_sc_hd__dfxtp_1_9__CLK
+ prog_clk_0_FTB00/X VGND VGND VPWR VPWR sky130_fd_sc_hd__diode_2
Xltile_clb_mode__0.ltile_fle_0.ltile_phy_fabric_0.ltile_frac_logic_0.ltile_frac_lut4_0.frac_lut4_sky130_fd_sc_hd__dfxtp_1_mem.sky130_fd_sc_hd__dfxtp_1_5_
+ prog_clk_0_FTB00/X ltile_clb_mode__0.ltile_fle_0.ltile_phy_fabric_0.ltile_frac_logic_0.ltile_frac_lut4_0.frac_lut4_0_.frac_lut4_mux_0_.mux_l1_in_2_/A1
+ VGND VGND VPWR VPWR ltile_clb_mode__0.ltile_fle_0.ltile_phy_fabric_0.ltile_frac_logic_0.ltile_frac_lut4_0.frac_lut4_0_.frac_lut4_mux_0_.mux_l1_in_2_/A0
+ sky130_fd_sc_hd__dfxtp_1
Xltile_clb_mode__0.ltile_fle_6.ltile_phy_fabric_0.ltile_frac_logic_0.mux_frac_logic_out_0.mux_l1_in_0_
+ ltile_clb_mode__0.ltile_fle_6.ltile_phy_fabric_0.ltile_frac_logic_0.mux_frac_logic_out_0.mux_l1_in_0_/A0
+ ltile_clb_mode__0.ltile_fle_6.ltile_phy_fabric_0.ltile_frac_logic_0.mux_frac_logic_out_0.mux_l1_in_0_/A1
+ ltile_clb_mode__0.ltile_fle_6.ltile_phy_fabric_0.ltile_frac_logic_0.mux_frac_logic_out_0.mux_l1_in_0_/S
+ VGND VGND VPWR VPWR ltile_clb_mode__0.ltile_fle_6.ltile_phy_fabric_0.ltile_frac_logic_0.mux_frac_logic_out_0.mux_l1_in_0_/X
+ sky130_fd_sc_hd__mux2_1
Xltile_clb_mode__0.ltile_fle_3.ltile_phy_fabric_0.mux_fabric_out_1.mux_l1_in_0_ ltile_clb_mode__0.ltile_fle_3.ltile_phy_fabric_0.mux_fabric_out_1.mux_l1_in_0_/A0
+ ltile_clb_mode__0.ltile_fle_4.ltile_phy_fabric_0.mux_ff_0_D_0.mux_l1_in_0_/A0 ltile_clb_mode__0.ltile_fle_3.ltile_phy_fabric_0.mux_fabric_out_1.mux_l1_in_0_/S
+ VGND VGND VPWR VPWR ltile_clb_mode__0.ltile_fle_3.ltile_phy_fabric_0.mux_fabric_out_1.mux_l1_in_0_/X
+ sky130_fd_sc_hd__mux2_1
XFILLER_25_111 VGND VGND VPWR VPWR sky130_fd_sc_hd__fill_1
Xltile_clb_mode__0.ltile_fle_2.ltile_phy_fabric_0.ltile_frac_logic_0.ltile_frac_lut4_0.frac_lut4_0_.frac_lut4_mux_0_.mux_l1_in_7_
+ ltile_clb_mode__0.ltile_fle_2.ltile_phy_fabric_0.ltile_frac_logic_0.ltile_frac_lut4_0.frac_lut4_0_.frac_lut4_mux_0_.mux_l1_in_7_/A0
+ ltile_clb_mode__0.ltile_fle_2.ltile_phy_fabric_0.ltile_frac_logic_0.ltile_frac_lut4_0.frac_lut4_0_.frac_lut4_mux_0_.mux_l1_in_7_/A1
+ repeater91/A VGND VGND VPWR VPWR ltile_clb_mode__0.ltile_fle_2.ltile_phy_fabric_0.ltile_frac_logic_0.ltile_frac_lut4_0.frac_lut4_0_.frac_lut4_mux_0_.mux_l1_in_7_/X
+ sky130_fd_sc_hd__mux2_1
XFILLER_31_55 VGND VGND VPWR VPWR sky130_fd_sc_hd__fill_1
XFILLER_31_66 VGND VGND VPWR VPWR sky130_fd_sc_hd__fill_2
Xoutput66 _76_/A VGND VGND VPWR VPWR top_width_0_height_0__pin_35_lower sky130_fd_sc_hd__buf_2
XFILLER_0_221 VGND VGND VPWR VPWR sky130_fd_sc_hd__decap_3
Xoutput44 output44/A VGND VGND VPWR VPWR prog_clk_0_E_out sky130_fd_sc_hd__clkbuf_1
Xoutput55 _70_/X VGND VGND VPWR VPWR right_width_0_height_0__pin_45_upper sky130_fd_sc_hd__buf_2
Xoutput77 _81_/X VGND VGND VPWR VPWR top_width_0_height_0__pin_40_upper sky130_fd_sc_hd__buf_2
XANTENNA_input23_A top_width_0_height_0__pin_11_ VGND VGND VPWR VPWR sky130_fd_sc_hd__diode_2
XTAP_114 VGND VPWR sky130_fd_sc_hd__tapvpwrvgnd_1
XTAP_103 VGND VPWR sky130_fd_sc_hd__tapvpwrvgnd_1
Xltile_clb_mode__0.ltile_fle_6.ltile_phy_fabric_0.ltile_frac_logic_0.ltile_frac_lut4_0.frac_lut4_0_.frac_lut4_mux_0_.mux_l1_in_4_
+ ltile_clb_mode__0.ltile_fle_6.ltile_phy_fabric_0.ltile_frac_logic_0.ltile_frac_lut4_0.frac_lut4_0_.frac_lut4_mux_0_.mux_l1_in_4_/A0
+ ltile_clb_mode__0.ltile_fle_6.ltile_phy_fabric_0.ltile_frac_logic_0.ltile_frac_lut4_0.frac_lut4_0_.frac_lut4_mux_0_.mux_l1_in_4_/A1
+ repeater82/X VGND VGND VPWR VPWR ltile_clb_mode__0.ltile_fle_6.ltile_phy_fabric_0.ltile_frac_logic_0.ltile_frac_lut4_0.frac_lut4_0_.frac_lut4_mux_0_.mux_l1_in_4_/X
+ sky130_fd_sc_hd__mux2_1
XTAP_125 VGND VPWR sky130_fd_sc_hd__tapvpwrvgnd_1
XTAP_136 VGND VPWR sky130_fd_sc_hd__tapvpwrvgnd_1
XTAP_147 VGND VPWR sky130_fd_sc_hd__tapvpwrvgnd_1
XTAP_158 VGND VPWR sky130_fd_sc_hd__tapvpwrvgnd_1
XTAP_169 VGND VPWR sky130_fd_sc_hd__tapvpwrvgnd_1
XFILLER_22_114 VGND VGND VPWR VPWR sky130_fd_sc_hd__decap_6
XANTENNA_ltile_clb_mode__0.ltile_fle_0.ltile_phy_fabric_0.ltile_frac_logic_0.ltile_frac_lut4_0.frac_lut4_sky130_fd_sc_hd__dfxtp_1_mem.sky130_fd_sc_hd__dfxtp_1_16__CLK
+ prog_clk_0_FTB00/X VGND VGND VPWR VPWR sky130_fd_sc_hd__diode_2
Xltile_clb_mode__0.ltile_fle_1.ltile_phy_fabric_0.ltile_frac_logic_0.ltile_frac_lut4_0.frac_lut4_sky130_fd_sc_hd__dfxtp_1_mem.sky130_fd_sc_hd__dfxtp_1_9_
+ prog_clk_0_FTB00/X ltile_clb_mode__0.ltile_fle_1.ltile_phy_fabric_0.ltile_frac_logic_0.ltile_frac_lut4_0.frac_lut4_0_.frac_lut4_mux_0_.mux_l1_in_4_/A1
+ VGND VGND VPWR VPWR hold1/A sky130_fd_sc_hd__dfxtp_1
Xltile_clb_mode__0.ltile_fle_1.ltile_phy_fabric_0.ltile_clb_fle_ff_0.sky130_fd_sc_hd__sdfxtp_1_0_
+ repeater96/X ltile_clb_mode__0.ltile_fle_1.ltile_phy_fabric_0.mux_ff_0_D_0.mux_l2_in_0_/X
+ ltile_clb_mode__0.ltile_fle_1.ltile_phy_fabric_0.mux_ff_0_D_0.mux_l1_in_0_/A0 repeater101/X
+ VGND VGND VPWR VPWR ltile_clb_mode__0.ltile_fle_1.ltile_phy_fabric_0.mux_fabric_out_0.mux_l1_in_0_/A1
+ sky130_fd_sc_hd__sdfxtp_1
XFILLER_13_147 VGND VGND VPWR VPWR sky130_fd_sc_hd__decap_4
XFILLER_36_206 VGND VGND VPWR VPWR sky130_fd_sc_hd__fill_1
XFILLER_3_15 VGND VPWR VPWR VGND sky130_ef_sc_hd__decap_12
Xltile_clb_mode__0.ltile_fle_6.ltile_phy_fabric_0.ltile_frac_logic_0.ltile_frac_lut4_0.frac_lut4_0_.frac_lut4_mux_0_.mux_l4_in_0_
+ ltile_clb_mode__0.ltile_fle_6.ltile_phy_fabric_0.ltile_frac_logic_0.ltile_frac_lut4_0.frac_lut4_0_.frac_lut4_mux_0_.mux_l3_in_1_/X
+ ltile_clb_mode__0.ltile_fle_6.ltile_phy_fabric_0.ltile_frac_logic_0.ltile_frac_lut4_0.frac_lut4_0_.frac_lut4_mux_0_.mux_l3_in_0_/X
+ ltile_clb_mode__0.ltile_fle_6.ltile_phy_fabric_0.ltile_frac_logic_0.ltile_frac_lut4_0.frac_lut4_0_.sky130_fd_sc_hd__buf_2_3_/X
+ VGND VGND VPWR VPWR ltile_clb_mode__0.ltile_fle_6.ltile_phy_fabric_0.ltile_frac_logic_0.ltile_frac_lut4_0.frac_lut4_0_.frac_lut4_mux_0_.mux_l4_in_0_/X
+ sky130_fd_sc_hd__mux2_1
X_80_ _80_/A VGND VGND VPWR VPWR _80_/X sky130_fd_sc_hd__clkbuf_1
Xrepeater96 repeater99/A VGND VGND VPWR VPWR repeater96/X sky130_fd_sc_hd__clkbuf_1
Xrepeater85 repeater85/A VGND VGND VPWR VPWR repeater85/X sky130_fd_sc_hd__clkbuf_2
Xltile_clb_mode__0.ltile_fle_0.ltile_phy_fabric_0.ltile_frac_logic_0.ltile_frac_lut4_0.frac_lut4_sky130_fd_sc_hd__dfxtp_1_mem.sky130_fd_sc_hd__dfxtp_1_10_
+ prog_clk_0_FTB00/X ltile_clb_mode__0.ltile_fle_0.ltile_phy_fabric_0.ltile_frac_logic_0.ltile_frac_lut4_0.frac_lut4_0_.frac_lut4_mux_0_.mux_l1_in_4_/A0
+ VGND VGND VPWR VPWR ltile_clb_mode__0.ltile_fle_0.ltile_phy_fabric_0.ltile_frac_logic_0.ltile_frac_lut4_0.frac_lut4_0_.frac_lut4_mux_0_.mux_l1_in_5_/A1
+ sky130_fd_sc_hd__dfxtp_1
XFILLER_10_139 VGND VGND VPWR VPWR sky130_fd_sc_hd__fill_1
XFILLER_5_187 VGND VGND VPWR VPWR sky130_fd_sc_hd__fill_1
XANTENNA_output54_A _70_/A VGND VGND VPWR VPWR sky130_fd_sc_hd__diode_2
Xltile_clb_mode__0.ltile_fle_2.ltile_phy_fabric_0.ltile_frac_logic_0.mux_frac_logic_out_0.mux_l1_in_0_
+ ltile_clb_mode__0.ltile_fle_2.ltile_phy_fabric_0.ltile_frac_logic_0.mux_frac_logic_out_0.mux_l1_in_0_/A0