* NGSPICE file created from left_tile.ext - technology: sky130A

* Black-box entry subcircuit for sky130_fd_sc_hd__tapvpwrvgnd_1 abstract view
.subckt sky130_fd_sc_hd__tapvpwrvgnd_1 VGND VPWR
.ends

* Black-box entry subcircuit for sky130_fd_sc_hd__fill_2 abstract view
.subckt sky130_fd_sc_hd__fill_2 VGND VNB VPB VPWR
.ends

* Black-box entry subcircuit for sky130_fd_sc_hd__fill_1 abstract view
.subckt sky130_fd_sc_hd__fill_1 VGND VNB VPB VPWR
.ends

* Black-box entry subcircuit for sky130_fd_sc_hd__decap_8 abstract view
.subckt sky130_fd_sc_hd__decap_8 VGND VNB VPB VPWR
.ends

* Black-box entry subcircuit for sky130_fd_sc_hd__mux2_1 abstract view
.subckt sky130_fd_sc_hd__mux2_1 A0 A1 S VGND VNB VPB VPWR X
.ends

* Black-box entry subcircuit for sky130_ef_sc_hd__decap_12 abstract view
.subckt sky130_ef_sc_hd__decap_12 VGND VNB VPB VPWR
.ends

* Black-box entry subcircuit for sky130_fd_sc_hd__decap_6 abstract view
.subckt sky130_fd_sc_hd__decap_6 VGND VNB VPB VPWR
.ends

* Black-box entry subcircuit for sky130_fd_sc_hd__decap_4 abstract view
.subckt sky130_fd_sc_hd__decap_4 VGND VNB VPB VPWR
.ends

* Black-box entry subcircuit for sky130_fd_sc_hd__dfrtp_2 abstract view
.subckt sky130_fd_sc_hd__dfrtp_2 CLK D RESET_B VGND VNB VPB VPWR Q
.ends

* Black-box entry subcircuit for sky130_fd_sc_hd__dfrtp_1 abstract view
.subckt sky130_fd_sc_hd__dfrtp_1 CLK D RESET_B VGND VNB VPB VPWR Q
.ends

* Black-box entry subcircuit for sky130_fd_sc_hd__clkbuf_1 abstract view
.subckt sky130_fd_sc_hd__clkbuf_1 A VGND VNB VPB VPWR X
.ends

* Black-box entry subcircuit for sky130_fd_sc_hd__decap_3 abstract view
.subckt sky130_fd_sc_hd__decap_3 VGND VNB VPB VPWR
.ends

* Black-box entry subcircuit for sky130_fd_sc_hd__buf_12 abstract view
.subckt sky130_fd_sc_hd__buf_12 A VGND VNB VPB VPWR X
.ends

* Black-box entry subcircuit for sky130_fd_sc_hd__conb_1 abstract view
.subckt sky130_fd_sc_hd__conb_1 VGND VNB VPB VPWR HI LO
.ends

* Black-box entry subcircuit for sky130_fd_sc_hd__clkbuf_2 abstract view
.subckt sky130_fd_sc_hd__clkbuf_2 A VGND VNB VPB VPWR X
.ends

* Black-box entry subcircuit for sky130_fd_sc_hd__ebufn_1 abstract view
.subckt sky130_fd_sc_hd__ebufn_1 A TE_B VGND VNB VPB VPWR Z
.ends

* Black-box entry subcircuit for sky130_fd_sc_hd__diode_2 abstract view
.subckt sky130_fd_sc_hd__diode_2 DIODE VGND VNB VPB VPWR
.ends

* Black-box entry subcircuit for sky130_fd_sc_hd__dfrtp_4 abstract view
.subckt sky130_fd_sc_hd__dfrtp_4 CLK D RESET_B VGND VNB VPB VPWR Q
.ends

* Black-box entry subcircuit for sky130_fd_sc_hd__clkbuf_8 abstract view
.subckt sky130_fd_sc_hd__clkbuf_8 A VGND VNB VPB VPWR X
.ends

* Black-box entry subcircuit for sky130_fd_sc_hd__buf_2 abstract view
.subckt sky130_fd_sc_hd__buf_2 A VGND VNB VPB VPWR X
.ends

* Black-box entry subcircuit for sky130_fd_sc_hd__ebufn_8 abstract view
.subckt sky130_fd_sc_hd__ebufn_8 A TE_B VGND VNB VPB VPWR Z
.ends

* Black-box entry subcircuit for sky130_fd_sc_hd__or2b_2 abstract view
.subckt sky130_fd_sc_hd__or2b_2 A B_N VGND VNB VPB VPWR X
.ends

* Black-box entry subcircuit for sky130_fd_sc_hd__inv_1 abstract view
.subckt sky130_fd_sc_hd__inv_1 A VGND VNB VPB VPWR Y
.ends

* Black-box entry subcircuit for sky130_fd_sc_hd__or2b_1 abstract view
.subckt sky130_fd_sc_hd__or2b_1 A B_N VGND VNB VPB VPWR X
.ends

* Black-box entry subcircuit for sky130_fd_sc_hd__clkbuf_4 abstract view
.subckt sky130_fd_sc_hd__clkbuf_4 A VGND VNB VPB VPWR X
.ends

* Black-box entry subcircuit for sky130_fd_sc_hd__clkbuf_16 abstract view
.subckt sky130_fd_sc_hd__clkbuf_16 A VGND VNB VPB VPWR X
.ends

* Black-box entry subcircuit for sky130_fd_sc_hd__dlymetal6s2s_1 abstract view
.subckt sky130_fd_sc_hd__dlymetal6s2s_1 A VGND VNB VPB VPWR X
.ends

.subckt left_tile VGND VPWR ccff_head ccff_head_0 ccff_tail ccff_tail_0 chanx_right_in[0]
+ chanx_right_in[10] chanx_right_in[11] chanx_right_in[12] chanx_right_in[13] chanx_right_in[14]
+ chanx_right_in[15] chanx_right_in[16] chanx_right_in[17] chanx_right_in[18] chanx_right_in[19]
+ chanx_right_in[1] chanx_right_in[20] chanx_right_in[21] chanx_right_in[22] chanx_right_in[23]
+ chanx_right_in[24] chanx_right_in[25] chanx_right_in[26] chanx_right_in[27] chanx_right_in[28]
+ chanx_right_in[29] chanx_right_in[2] chanx_right_in[3] chanx_right_in[4] chanx_right_in[5]
+ chanx_right_in[6] chanx_right_in[7] chanx_right_in[8] chanx_right_in[9] chanx_right_out[0]
+ chanx_right_out[10] chanx_right_out[11] chanx_right_out[12] chanx_right_out[13]
+ chanx_right_out[14] chanx_right_out[15] chanx_right_out[16] chanx_right_out[17]
+ chanx_right_out[18] chanx_right_out[19] chanx_right_out[1] chanx_right_out[20] chanx_right_out[21]
+ chanx_right_out[22] chanx_right_out[23] chanx_right_out[24] chanx_right_out[25]
+ chanx_right_out[26] chanx_right_out[27] chanx_right_out[28] chanx_right_out[29]
+ chanx_right_out[2] chanx_right_out[3] chanx_right_out[4] chanx_right_out[5] chanx_right_out[6]
+ chanx_right_out[7] chanx_right_out[8] chanx_right_out[9] chany_bottom_in[0] chany_bottom_in[10]
+ chany_bottom_in[11] chany_bottom_in[12] chany_bottom_in[13] chany_bottom_in[14]
+ chany_bottom_in[15] chany_bottom_in[16] chany_bottom_in[17] chany_bottom_in[18]
+ chany_bottom_in[19] chany_bottom_in[1] chany_bottom_in[20] chany_bottom_in[21] chany_bottom_in[22]
+ chany_bottom_in[23] chany_bottom_in[24] chany_bottom_in[25] chany_bottom_in[26]
+ chany_bottom_in[27] chany_bottom_in[28] chany_bottom_in[29] chany_bottom_in[2] chany_bottom_in[3]
+ chany_bottom_in[4] chany_bottom_in[5] chany_bottom_in[6] chany_bottom_in[7] chany_bottom_in[8]
+ chany_bottom_in[9] chany_bottom_out[0] chany_bottom_out[10] chany_bottom_out[11]
+ chany_bottom_out[12] chany_bottom_out[13] chany_bottom_out[14] chany_bottom_out[15]
+ chany_bottom_out[16] chany_bottom_out[17] chany_bottom_out[18] chany_bottom_out[19]
+ chany_bottom_out[1] chany_bottom_out[20] chany_bottom_out[21] chany_bottom_out[22]
+ chany_bottom_out[23] chany_bottom_out[24] chany_bottom_out[25] chany_bottom_out[26]
+ chany_bottom_out[27] chany_bottom_out[28] chany_bottom_out[29] chany_bottom_out[2]
+ chany_bottom_out[3] chany_bottom_out[4] chany_bottom_out[5] chany_bottom_out[6]
+ chany_bottom_out[7] chany_bottom_out[8] chany_bottom_out[9] chany_top_in_0[0] chany_top_in_0[10]
+ chany_top_in_0[11] chany_top_in_0[12] chany_top_in_0[13] chany_top_in_0[14] chany_top_in_0[15]
+ chany_top_in_0[16] chany_top_in_0[17] chany_top_in_0[18] chany_top_in_0[19] chany_top_in_0[1]
+ chany_top_in_0[20] chany_top_in_0[21] chany_top_in_0[22] chany_top_in_0[23] chany_top_in_0[24]
+ chany_top_in_0[25] chany_top_in_0[26] chany_top_in_0[27] chany_top_in_0[28] chany_top_in_0[29]
+ chany_top_in_0[2] chany_top_in_0[3] chany_top_in_0[4] chany_top_in_0[5] chany_top_in_0[6]
+ chany_top_in_0[7] chany_top_in_0[8] chany_top_in_0[9] chany_top_out_0[0] chany_top_out_0[10]
+ chany_top_out_0[11] chany_top_out_0[12] chany_top_out_0[13] chany_top_out_0[14]
+ chany_top_out_0[15] chany_top_out_0[16] chany_top_out_0[17] chany_top_out_0[18]
+ chany_top_out_0[19] chany_top_out_0[1] chany_top_out_0[20] chany_top_out_0[21] chany_top_out_0[22]
+ chany_top_out_0[23] chany_top_out_0[24] chany_top_out_0[25] chany_top_out_0[26]
+ chany_top_out_0[27] chany_top_out_0[28] chany_top_out_0[29] chany_top_out_0[2] chany_top_out_0[3]
+ chany_top_out_0[4] chany_top_out_0[5] chany_top_out_0[6] chany_top_out_0[7] chany_top_out_0[8]
+ chany_top_out_0[9] gfpga_pad_io_soc_dir[0] gfpga_pad_io_soc_dir[1] gfpga_pad_io_soc_dir[2]
+ gfpga_pad_io_soc_dir[3] gfpga_pad_io_soc_in[0] gfpga_pad_io_soc_in[1] gfpga_pad_io_soc_in[2]
+ gfpga_pad_io_soc_in[3] gfpga_pad_io_soc_out[0] gfpga_pad_io_soc_out[1] gfpga_pad_io_soc_out[2]
+ gfpga_pad_io_soc_out[3] isol_n prog_clk prog_reset_bottom_in prog_reset_bottom_out
+ prog_reset_left_in prog_reset_right_out prog_reset_top_in prog_reset_top_out reset_bottom_in
+ reset_bottom_out reset_right_in reset_top_in reset_top_out right_bottom_grid_top_width_0_height_0_subtile_0__pin_O_0_
+ right_bottom_grid_top_width_0_height_0_subtile_0__pin_O_1_ right_bottom_grid_top_width_0_height_0_subtile_0__pin_O_2_
+ right_bottom_grid_top_width_0_height_0_subtile_0__pin_O_3_ right_bottom_grid_top_width_0_height_0_subtile_0__pin_O_4_
+ right_bottom_grid_top_width_0_height_0_subtile_0__pin_O_5_ right_bottom_grid_top_width_0_height_0_subtile_0__pin_O_6_
+ right_bottom_grid_top_width_0_height_0_subtile_0__pin_O_7_ right_width_0_height_0_subtile_0__pin_inpad_0_
+ right_width_0_height_0_subtile_1__pin_inpad_0_ right_width_0_height_0_subtile_2__pin_inpad_0_
+ right_width_0_height_0_subtile_3__pin_inpad_0_ test_enable_bottom_in test_enable_bottom_out
+ test_enable_right_in test_enable_top_in test_enable_top_out top_left_grid_right_width_0_height_0_subtile_0__pin_inpad_0_
+ top_left_grid_right_width_0_height_0_subtile_1__pin_inpad_0_ top_left_grid_right_width_0_height_0_subtile_2__pin_inpad_0_
+ top_left_grid_right_width_0_height_0_subtile_3__pin_inpad_0_
XTAP_199 VGND VPWR sky130_fd_sc_hd__tapvpwrvgnd_1
XFILLER_39_222 VGND VGND VPWR VPWR sky130_fd_sc_hd__fill_2
XFILLER_79_391 VGND VGND VPWR VPWR sky130_fd_sc_hd__fill_1
XFILLER_82_501 VGND VGND VPWR VPWR sky130_fd_sc_hd__decap_8
Xcby_0__1_.cby_0__1_.mux_right_ipin_1.mux_l1_in_4_ net65 net34 cby_0__1_.cby_0__1_.mem_right_ipin_1.mem_out\[0\]
+ VGND VGND VPWR VPWR cby_0__1_.cby_0__1_.mux_right_ipin_1.sky130_fd_sc_hd__mux2_1_4_X
+ sky130_fd_sc_hd__mux2_1
XFILLER_94_372 VGND VGND VPWR VPWR sky130_ef_sc_hd__decap_12
XFILLER_27_439 VGND VGND VPWR VPWR sky130_fd_sc_hd__decap_8
XFILLER_54_258 VGND VGND VPWR VPWR sky130_fd_sc_hd__decap_8
XFILLER_35_461 VGND VGND VPWR VPWR sky130_fd_sc_hd__fill_2
XFILLER_22_133 VGND VGND VPWR VPWR sky130_fd_sc_hd__decap_6
XFILLER_52_29 VGND VGND VPWR VPWR sky130_ef_sc_hd__decap_12
XFILLER_50_453 VGND VGND VPWR VPWR sky130_ef_sc_hd__decap_12
XFILLER_22_177 VGND VGND VPWR VPWR sky130_ef_sc_hd__decap_12
XFILLER_89_111 VGND VGND VPWR VPWR sky130_fd_sc_hd__fill_1
XFILLER_77_15 VGND VGND VPWR VPWR sky130_ef_sc_hd__decap_12
XFILLER_77_317 VGND VGND VPWR VPWR sky130_ef_sc_hd__decap_12
XFILLER_92_309 VGND VGND VPWR VPWR sky130_ef_sc_hd__decap_12
XFILLER_85_361 VGND VGND VPWR VPWR sky130_ef_sc_hd__decap_12
XFILLER_45_225 VGND VGND VPWR VPWR sky130_fd_sc_hd__decap_8
XFILLER_93_69 VGND VGND VPWR VPWR sky130_fd_sc_hd__decap_4
XFILLER_26_41 VGND VGND VPWR VPWR sky130_fd_sc_hd__decap_6
XFILLER_26_63 VGND VGND VPWR VPWR sky130_ef_sc_hd__decap_12
XFILLER_13_111 VGND VGND VPWR VPWR sky130_fd_sc_hd__fill_1
XFILLER_26_85 VGND VGND VPWR VPWR sky130_ef_sc_hd__decap_12
XFILLER_9_137 VGND VGND VPWR VPWR sky130_ef_sc_hd__decap_12
XFILLER_41_497 VGND VGND VPWR VPWR sky130_fd_sc_hd__decap_6
XFILLER_5_310 VGND VGND VPWR VPWR sky130_fd_sc_hd__decap_4
XFILLER_95_169 VGND VGND VPWR VPWR sky130_fd_sc_hd__decap_8
XFILLER_64_501 VGND VGND VPWR VPWR sky130_fd_sc_hd__decap_8
XFILLER_67_81 VGND VGND VPWR VPWR sky130_ef_sc_hd__decap_12
XFILLER_17_461 VGND VGND VPWR VPWR sky130_ef_sc_hd__decap_12
XFILLER_51_217 VGND VGND VPWR VPWR sky130_fd_sc_hd__decap_6
XFILLER_17_494 VGND VGND VPWR VPWR sky130_fd_sc_hd__decap_8
XFILLER_44_280 VGND VGND VPWR VPWR sky130_fd_sc_hd__decap_4
Xcby_0__1_.cby_0__1_.mux_right_ipin_1.mux_l4_in_0_ cby_0__1_.cby_0__1_.mux_right_ipin_1.sky130_fd_sc_hd__mux2_1_10_X
+ cby_0__1_.cby_0__1_.mux_right_ipin_1.sky130_fd_sc_hd__mux2_1_9_X cby_0__1_.cby_0__1_.mem_right_ipin_1.ccff_tail
+ VGND VGND VPWR VPWR cby_0__1_.cby_0__1_.mux_right_ipin_1.sky130_fd_sc_hd__mux2_1_11_X
+ sky130_fd_sc_hd__mux2_1
Xcby_0__1_.cby_0__1_.mem_right_ipin_2.sky130_fd_sc_hd__dfrtp_1_1_ clknet_4_2_0_prog_clk
+ cby_0__1_.cby_0__1_.mem_right_ipin_2.mem_out\[0\] net98 VGND VGND VPWR VPWR cby_0__1_.cby_0__1_.mem_right_ipin_2.mem_out\[1\]
+ sky130_fd_sc_hd__dfrtp_2
XFILLER_74_309 VGND VGND VPWR VPWR sky130_ef_sc_hd__decap_12
XFILLER_27_225 VGND VGND VPWR VPWR sky130_ef_sc_hd__decap_12
XFILLER_42_239 VGND VGND VPWR VPWR sky130_fd_sc_hd__decap_8
XFILLER_23_497 VGND VGND VPWR VPWR sky130_fd_sc_hd__decap_6
XFILLER_50_261 VGND VGND VPWR VPWR sky130_fd_sc_hd__fill_2
XFILLER_50_272 VGND VGND VPWR VPWR sky130_fd_sc_hd__decap_4
Xsb_0__1_.mem_right_track_22.sky130_fd_sc_hd__dfrtp_1_2_ clknet_4_9_0_prog_clk sb_0__1_.mem_right_track_22.mem_out\[1\]
+ net98 VGND VGND VPWR VPWR sb_0__1_.mem_right_track_22.ccff_tail sky130_fd_sc_hd__dfrtp_1
Xsb_0__1_.mux_right_track_14.sky130_fd_sc_hd__buf_4_0_ sb_0__1_.mux_right_track_14.sky130_fd_sc_hd__mux2_1_3_X
+ VGND VGND VPWR VPWR sb_0__1_.mux_right_track_14.out sky130_fd_sc_hd__clkbuf_1
XFILLER_12_65 VGND VGND VPWR VPWR sky130_ef_sc_hd__decap_12
XFILLER_77_125 VGND VGND VPWR VPWR sky130_ef_sc_hd__decap_12
XFILLER_77_158 VGND VGND VPWR VPWR sky130_fd_sc_hd__decap_8
XFILLER_77_169 VGND VGND VPWR VPWR sky130_ef_sc_hd__decap_12
XFILLER_92_117 VGND VGND VPWR VPWR sky130_ef_sc_hd__decap_12
XFILLER_37_51 VGND VGND VPWR VPWR sky130_fd_sc_hd__decap_4
XFILLER_46_512 VGND VGND VPWR VPWR sky130_fd_sc_hd__decap_3
XFILLER_14_475 VGND VGND VPWR VPWR sky130_fd_sc_hd__fill_1
XFILLER_41_261 VGND VGND VPWR VPWR sky130_fd_sc_hd__decap_3
XFILLER_56_309 VGND VGND VPWR VPWR sky130_fd_sc_hd__fill_2
XFILLER_64_320 VGND VGND VPWR VPWR sky130_fd_sc_hd__decap_4
XFILLER_91_161 VGND VGND VPWR VPWR sky130_fd_sc_hd__decap_6
XFILLER_32_261 VGND VGND VPWR VPWR sky130_fd_sc_hd__fill_1
XFILLER_20_456 VGND VGND VPWR VPWR sky130_ef_sc_hd__decap_12
XFILLER_20_489 VGND VGND VPWR VPWR sky130_ef_sc_hd__decap_12
Xoutput220 net220 VGND VGND VPWR VPWR prog_reset_top_out sky130_fd_sc_hd__buf_12
XFILLER_59_125 VGND VGND VPWR VPWR sky130_ef_sc_hd__decap_12
XFILLER_59_169 VGND VGND VPWR VPWR sky130_ef_sc_hd__decap_12
XFILLER_28_501 VGND VGND VPWR VPWR sky130_fd_sc_hd__decap_8
XFILLER_74_139 VGND VGND VPWR VPWR sky130_fd_sc_hd__fill_1
XFILLER_74_27 VGND VGND VPWR VPWR sky130_fd_sc_hd__fill_1
XFILLER_15_217 VGND VGND VPWR VPWR sky130_fd_sc_hd__decap_6
XFILLER_55_386 VGND VGND VPWR VPWR sky130_fd_sc_hd__decap_6
Xsb_0__1_.mem_right_track_54.sky130_fd_sc_hd__dfrtp_1_1_ clknet_4_8_0_prog_clk sb_0__1_.mem_right_track_54.mem_out\[0\]
+ net98 VGND VGND VPWR VPWR sb_0__1_.mem_right_track_54.ccff_tail sky130_fd_sc_hd__dfrtp_1
XFILLER_90_15 VGND VGND VPWR VPWR sky130_ef_sc_hd__decap_12
Xcby_0__1_.cby_0__1_.mux_right_ipin_1.mux_l2_in_3__272 VGND VGND VPWR VPWR cby_0__1_.cby_0__1_.mux_right_ipin_1.mux_l2_in_3__272/HI
+ net272 sky130_fd_sc_hd__conb_1
X_200_ cby_0__1_.grid_io_left_left_0__1_.logical_tile_io_mode_io__1.gfpga_pad_io_soc_dir
+ VGND VGND VPWR VPWR net212 sky130_fd_sc_hd__clkbuf_2
XFILLER_7_405 VGND VGND VPWR VPWR sky130_ef_sc_hd__decap_12
X_131_ sb_0__1_.mux_right_track_12.out VGND VGND VPWR VPWR net135 sky130_fd_sc_hd__clkbuf_2
XFILLER_7_449 VGND VGND VPWR VPWR sky130_ef_sc_hd__decap_12
Xsb_0__1_.mux_right_track_8.mux_l1_in_0_ net73 net80 sb_0__1_.mem_right_track_8.mem_out\[0\]
+ VGND VGND VPWR VPWR sb_0__1_.mux_right_track_8.sky130_fd_sc_hd__mux2_1_0_X sky130_fd_sc_hd__mux2_1
XFILLER_2_121 VGND VGND VPWR VPWR sky130_ef_sc_hd__decap_12
XFILLER_2_165 VGND VGND VPWR VPWR sky130_ef_sc_hd__decap_12
XFILLER_78_412 VGND VGND VPWR VPWR sky130_fd_sc_hd__decap_8
XFILLER_78_445 VGND VGND VPWR VPWR sky130_ef_sc_hd__decap_12
Xcby_0__1_.cby_0__1_.mux_right_ipin_1.mux_l3_in_1_ cby_0__1_.cby_0__1_.mux_right_ipin_1.sky130_fd_sc_hd__mux2_1_8_X
+ cby_0__1_.cby_0__1_.mux_right_ipin_1.sky130_fd_sc_hd__mux2_1_7_X cby_0__1_.cby_0__1_.mem_right_ipin_1.mem_out\[2\]
+ VGND VGND VPWR VPWR cby_0__1_.cby_0__1_.mux_right_ipin_1.sky130_fd_sc_hd__mux2_1_10_X
+ sky130_fd_sc_hd__mux2_1
XFILLER_38_309 VGND VGND VPWR VPWR sky130_fd_sc_hd__decap_6
XFILLER_48_83 VGND VGND VPWR VPWR sky130_fd_sc_hd__fill_1
XFILLER_78_489 VGND VGND VPWR VPWR sky130_ef_sc_hd__decap_12
XFILLER_46_331 VGND VGND VPWR VPWR sky130_fd_sc_hd__fill_1
XFILLER_0_57 VGND VGND VPWR VPWR sky130_fd_sc_hd__decap_8
XFILLER_73_161 VGND VGND VPWR VPWR sky130_fd_sc_hd__decap_6
XFILLER_80_109 VGND VGND VPWR VPWR sky130_ef_sc_hd__decap_12
XFILLER_61_334 VGND VGND VPWR VPWR sky130_fd_sc_hd__fill_2
XFILLER_9_55 VGND VGND VPWR VPWR sky130_fd_sc_hd__fill_1
Xsb_0__1_.mux_bottom_track_11.mux_l1_in_0_ net88 net73 sb_0__1_.mem_bottom_track_11.mem_out\[0\]
+ VGND VGND VPWR VPWR sb_0__1_.mux_bottom_track_11.sky130_fd_sc_hd__mux2_1_0_X sky130_fd_sc_hd__mux2_1
XFILLER_50_3 VGND VGND VPWR VPWR sky130_fd_sc_hd__fill_2
Xcby_0__1_.grid_io_left_left_0__1_.logical_tile_io_mode_io__0.logical_tile_io_mode_physical__iopad_0.io_0_.OUT_PROTECT_GATE
+ cby_0__1_.cby_0__1_.left_grid_right_width_0_height_0_subtile_0__pin_outpad_0_ cby_0__1_.grid_io_left_left_0__1_.logical_tile_io_mode_io__0.gfpga_pad_io_soc_dir
+ VGND VGND VPWR VPWR cby_0__1_.grid_io_left_left_0__1_.logical_tile_io_mode_io__0.gfpga_pad_io_soc_out
+ sky130_fd_sc_hd__ebufn_1
XFILLER_37_342 VGND VGND VPWR VPWR sky130_ef_sc_hd__decap_12
XFILLER_56_139 VGND VGND VPWR VPWR sky130_fd_sc_hd__fill_1
XFILLER_37_375 VGND VGND VPWR VPWR sky130_ef_sc_hd__decap_12
XFILLER_12_209 VGND VGND VPWR VPWR sky130_ef_sc_hd__decap_12
XFILLER_20_253 VGND VGND VPWR VPWR sky130_ef_sc_hd__decap_12
XFILLER_60_29 VGND VGND VPWR VPWR sky130_ef_sc_hd__decap_12
XFILLER_4_419 VGND VGND VPWR VPWR sky130_fd_sc_hd__fill_1
XFILLER_69_27 VGND VGND VPWR VPWR sky130_ef_sc_hd__decap_12
XFILLER_85_15 VGND VGND VPWR VPWR sky130_ef_sc_hd__decap_12
XFILLER_18_53 VGND VGND VPWR VPWR sky130_ef_sc_hd__decap_12
XFILLER_55_161 VGND VGND VPWR VPWR sky130_fd_sc_hd__decap_6
XFILLER_62_109 VGND VGND VPWR VPWR sky130_ef_sc_hd__decap_12
XFILLER_18_97 VGND VGND VPWR VPWR sky130_ef_sc_hd__decap_12
XFILLER_70_153 VGND VGND VPWR VPWR sky130_ef_sc_hd__decap_12
XFILLER_34_85 VGND VGND VPWR VPWR sky130_fd_sc_hd__fill_2
XFILLER_70_197 VGND VGND VPWR VPWR sky130_ef_sc_hd__decap_12
X_114_ sb_0__1_.mux_right_track_46.out VGND VGND VPWR VPWR net146 sky130_fd_sc_hd__clkbuf_2
XFILLER_7_279 VGND VGND VPWR VPWR sky130_fd_sc_hd__fill_1
XFILLER_3_441 VGND VGND VPWR VPWR sky130_fd_sc_hd__decap_6
XTAP_507 VGND VPWR sky130_fd_sc_hd__tapvpwrvgnd_1
XFILLER_3_485 VGND VGND VPWR VPWR sky130_fd_sc_hd__fill_1
XTAP_518 VGND VPWR sky130_fd_sc_hd__tapvpwrvgnd_1
XTAP_529 VGND VPWR sky130_fd_sc_hd__tapvpwrvgnd_1
XFILLER_59_93 VGND VGND VPWR VPWR sky130_ef_sc_hd__decap_12
XFILLER_78_253 VGND VGND VPWR VPWR sky130_fd_sc_hd__decap_6
XFILLER_78_275 VGND VGND VPWR VPWR sky130_ef_sc_hd__decap_12
XFILLER_93_223 VGND VGND VPWR VPWR sky130_fd_sc_hd__fill_1
XFILLER_66_459 VGND VGND VPWR VPWR sky130_ef_sc_hd__decap_12
XFILLER_81_429 VGND VGND VPWR VPWR sky130_ef_sc_hd__decap_12
XFILLER_19_353 VGND VGND VPWR VPWR sky130_fd_sc_hd__fill_1
XFILLER_75_81 VGND VGND VPWR VPWR sky130_ef_sc_hd__decap_12
XFILLER_34_301 VGND VGND VPWR VPWR sky130_fd_sc_hd__decap_6
XFILLER_34_389 VGND VGND VPWR VPWR sky130_fd_sc_hd__decap_8
Xsb_0__1_.mux_right_track_14.mux_l3_in_0_ sb_0__1_.mux_right_track_14.sky130_fd_sc_hd__mux2_1_2_X
+ sb_0__1_.mux_right_track_14.sky130_fd_sc_hd__mux2_1_1_X sb_0__1_.mem_right_track_14.ccff_tail
+ VGND VGND VPWR VPWR sb_0__1_.mux_right_track_14.sky130_fd_sc_hd__mux2_1_3_X sky130_fd_sc_hd__mux2_1
Xsb_0__1_.mux_right_track_56.mux_l1_in_0_ net54 net110 sb_0__1_.mem_right_track_56.mem_out\[0\]
+ VGND VGND VPWR VPWR sb_0__1_.mux_right_track_56.sky130_fd_sc_hd__mux2_1_0_X sky130_fd_sc_hd__mux2_1
XFILLER_57_404 VGND VGND VPWR VPWR sky130_fd_sc_hd__decap_4
XFILLER_84_245 VGND VGND VPWR VPWR sky130_fd_sc_hd__decap_6
XFILLER_84_289 VGND VGND VPWR VPWR sky130_ef_sc_hd__decap_12
XFILLER_37_161 VGND VGND VPWR VPWR sky130_fd_sc_hd__decap_6
XFILLER_25_345 VGND VGND VPWR VPWR sky130_fd_sc_hd__fill_1
XFILLER_52_153 VGND VGND VPWR VPWR sky130_ef_sc_hd__decap_12
XFILLER_52_197 VGND VGND VPWR VPWR sky130_ef_sc_hd__decap_12
XFILLER_71_39 VGND VGND VPWR VPWR sky130_fd_sc_hd__decap_8
Xcby_0__1_.cby_0__1_.mux_right_ipin_1.mux_l2_in_2_ net57 cby_0__1_.cby_0__1_.mux_right_ipin_1.sky130_fd_sc_hd__mux2_1_4_X
+ cby_0__1_.cby_0__1_.mem_right_ipin_1.mem_out\[1\] VGND VGND VPWR VPWR cby_0__1_.cby_0__1_.mux_right_ipin_1.sky130_fd_sc_hd__mux2_1_7_X
+ sky130_fd_sc_hd__mux2_1
XFILLER_20_65 VGND VGND VPWR VPWR sky130_ef_sc_hd__decap_12
XFILLER_0_411 VGND VGND VPWR VPWR sky130_fd_sc_hd__decap_8
XFILLER_0_477 VGND VGND VPWR VPWR sky130_fd_sc_hd__decap_4
XFILLER_48_404 VGND VGND VPWR VPWR sky130_fd_sc_hd__decap_4
XFILLER_75_278 VGND VGND VPWR VPWR sky130_fd_sc_hd__fill_2
XFILLER_16_301 VGND VGND VPWR VPWR sky130_fd_sc_hd__decap_6
XFILLER_90_259 VGND VGND VPWR VPWR sky130_ef_sc_hd__decap_12
XFILLER_16_345 VGND VGND VPWR VPWR sky130_ef_sc_hd__decap_12
XFILLER_28_194 VGND VGND VPWR VPWR sky130_fd_sc_hd__fill_2
XFILLER_45_51 VGND VGND VPWR VPWR sky130_fd_sc_hd__decap_4
XFILLER_16_389 VGND VGND VPWR VPWR sky130_ef_sc_hd__decap_12
XFILLER_71_473 VGND VGND VPWR VPWR sky130_ef_sc_hd__decap_12
XFILLER_31_337 VGND VGND VPWR VPWR sky130_ef_sc_hd__decap_12
XFILLER_84_9 VGND VGND VPWR VPWR sky130_ef_sc_hd__decap_12
Xsb_0__1_.mux_bottom_track_45.mux_l2_in_1__227 VGND VGND VPWR VPWR sb_0__1_.mux_bottom_track_45.mux_l2_in_1__227/HI
+ net227 sky130_fd_sc_hd__conb_1
XANTENNA_5 sb_0__1_.mux_top_track_6.sky130_fd_sc_hd__mux2_1_1_X VGND VGND VPWR VPWR
+ sky130_fd_sc_hd__diode_2
XTAP_315 VGND VPWR sky130_fd_sc_hd__tapvpwrvgnd_1
XTAP_304 VGND VPWR sky130_fd_sc_hd__tapvpwrvgnd_1
XTAP_348 VGND VPWR sky130_fd_sc_hd__tapvpwrvgnd_1
XTAP_337 VGND VPWR sky130_fd_sc_hd__tapvpwrvgnd_1
XTAP_326 VGND VPWR sky130_fd_sc_hd__tapvpwrvgnd_1
XFILLER_3_293 VGND VGND VPWR VPWR sky130_ef_sc_hd__decap_12
XTAP_359 VGND VPWR sky130_fd_sc_hd__tapvpwrvgnd_1
Xsb_0__1_.mux_bottom_track_45.sky130_fd_sc_hd__buf_4_0_ sb_0__1_.mux_bottom_track_45.sky130_fd_sc_hd__mux2_1_3_X
+ VGND VGND VPWR VPWR sb_0__1_.mux_bottom_track_45.out sky130_fd_sc_hd__clkbuf_1
XFILLER_13_3 VGND VGND VPWR VPWR sky130_ef_sc_hd__decap_12
XFILLER_26_109 VGND VGND VPWR VPWR sky130_ef_sc_hd__decap_12
XFILLER_54_418 VGND VGND VPWR VPWR sky130_fd_sc_hd__fill_2
XFILLER_66_278 VGND VGND VPWR VPWR sky130_fd_sc_hd__decap_4
XFILLER_81_237 VGND VGND VPWR VPWR sky130_ef_sc_hd__decap_12
XFILLER_19_161 VGND VGND VPWR VPWR sky130_fd_sc_hd__decap_6
XFILLER_34_131 VGND VGND VPWR VPWR sky130_fd_sc_hd__decap_8
XFILLER_34_153 VGND VGND VPWR VPWR sky130_ef_sc_hd__decap_12
XFILLER_34_197 VGND VGND VPWR VPWR sky130_ef_sc_hd__decap_12
XFILLER_89_337 VGND VGND VPWR VPWR sky130_ef_sc_hd__decap_12
XTAP_860 VGND VPWR sky130_fd_sc_hd__tapvpwrvgnd_1
XTAP_871 VGND VPWR sky130_fd_sc_hd__tapvpwrvgnd_1
XFILLER_57_223 VGND VGND VPWR VPWR sky130_fd_sc_hd__fill_1
XTAP_882 VGND VPWR sky130_fd_sc_hd__tapvpwrvgnd_1
XTAP_893 VGND VPWR sky130_fd_sc_hd__tapvpwrvgnd_1
XFILLER_45_418 VGND VGND VPWR VPWR sky130_fd_sc_hd__decap_8
XFILLER_57_278 VGND VGND VPWR VPWR sky130_fd_sc_hd__fill_2
XFILLER_82_27 VGND VGND VPWR VPWR sky130_fd_sc_hd__fill_1
XFILLER_53_484 VGND VGND VPWR VPWR sky130_ef_sc_hd__decap_12
XFILLER_13_337 VGND VGND VPWR VPWR sky130_fd_sc_hd__fill_2
XFILLER_80_281 VGND VGND VPWR VPWR sky130_ef_sc_hd__decap_12
XFILLER_40_167 VGND VGND VPWR VPWR sky130_ef_sc_hd__decap_12
XFILLER_5_503 VGND VGND VPWR VPWR sky130_fd_sc_hd__fill_1
XFILLER_5_525 VGND VGND VPWR VPWR sky130_fd_sc_hd__fill_2
Xsb_0__1_.mem_top_track_10.sky130_fd_sc_hd__dfrtp_1_1_ clknet_4_5_0_prog_clk sb_0__1_.mem_top_track_10.mem_out\[0\]
+ net98 VGND VGND VPWR VPWR sb_0__1_.mem_top_track_10.mem_out\[1\] sky130_fd_sc_hd__dfrtp_1
XFILLER_95_307 VGND VGND VPWR VPWR sky130_fd_sc_hd__fill_1
XFILLER_56_83 VGND VGND VPWR VPWR sky130_fd_sc_hd__fill_1
XFILLER_16_197 VGND VGND VPWR VPWR sky130_ef_sc_hd__decap_12
XFILLER_71_281 VGND VGND VPWR VPWR sky130_fd_sc_hd__decap_3
XPHY_170 VGND VGND VPWR VPWR sky130_fd_sc_hd__decap_3
XFILLER_31_167 VGND VGND VPWR VPWR sky130_fd_sc_hd__fill_1
XPHY_181 VGND VGND VPWR VPWR sky130_fd_sc_hd__decap_3
Xsb_0__1_.mux_right_track_14.mux_l2_in_1_ net234 net39 sb_0__1_.mem_right_track_14.mem_out\[1\]
+ VGND VGND VPWR VPWR sb_0__1_.mux_right_track_14.sky130_fd_sc_hd__mux2_1_2_X sky130_fd_sc_hd__mux2_1
XFILLER_8_363 VGND VGND VPWR VPWR sky130_fd_sc_hd__fill_1
XFILLER_86_307 VGND VGND VPWR VPWR sky130_fd_sc_hd__fill_1
XFILLER_94_340 VGND VGND VPWR VPWR sky130_ef_sc_hd__decap_12
Xcby_0__1_.cby_0__1_.mux_right_ipin_1.mux_l1_in_3_ net71 net40 cby_0__1_.cby_0__1_.mem_right_ipin_1.mem_out\[0\]
+ VGND VGND VPWR VPWR cby_0__1_.cby_0__1_.mux_right_ipin_1.sky130_fd_sc_hd__mux2_1_3_X
+ sky130_fd_sc_hd__mux2_1
XFILLER_94_384 VGND VGND VPWR VPWR sky130_ef_sc_hd__decap_12
XFILLER_39_278 VGND VGND VPWR VPWR sky130_fd_sc_hd__fill_2
XFILLER_54_226 VGND VGND VPWR VPWR sky130_fd_sc_hd__decap_4
XFILLER_50_421 VGND VGND VPWR VPWR sky130_ef_sc_hd__decap_12
XFILLER_10_307 VGND VGND VPWR VPWR sky130_fd_sc_hd__fill_1
XFILLER_50_465 VGND VGND VPWR VPWR sky130_fd_sc_hd__decap_8
XFILLER_22_189 VGND VGND VPWR VPWR sky130_fd_sc_hd__decap_6
Xsb_0__1_.mux_right_track_24.mux_l1_in_1__240 VGND VGND VPWR VPWR sb_0__1_.mux_right_track_24.mux_l1_in_1__240/HI
+ net240 sky130_fd_sc_hd__conb_1
XFILLER_77_27 VGND VGND VPWR VPWR sky130_ef_sc_hd__decap_12
XFILLER_89_167 VGND VGND VPWR VPWR sky130_fd_sc_hd__fill_1
XFILLER_77_329 VGND VGND VPWR VPWR sky130_fd_sc_hd__decap_6
XFILLER_58_521 VGND VGND VPWR VPWR sky130_fd_sc_hd__fill_1
XTAP_690 VGND VPWR sky130_fd_sc_hd__tapvpwrvgnd_1
XFILLER_93_37 VGND VGND VPWR VPWR sky130_fd_sc_hd__fill_1
XFILLER_85_373 VGND VGND VPWR VPWR sky130_ef_sc_hd__decap_12
XFILLER_73_513 VGND VGND VPWR VPWR sky130_fd_sc_hd__fill_2
XFILLER_45_248 VGND VGND VPWR VPWR sky130_fd_sc_hd__fill_1
XFILLER_26_75 VGND VGND VPWR VPWR sky130_fd_sc_hd__decap_8
XFILLER_26_97 VGND VGND VPWR VPWR sky130_ef_sc_hd__decap_12
XFILLER_53_281 VGND VGND VPWR VPWR sky130_ef_sc_hd__decap_12
XFILLER_13_167 VGND VGND VPWR VPWR sky130_fd_sc_hd__fill_1
XFILLER_9_105 VGND VGND VPWR VPWR sky130_fd_sc_hd__decap_6
XFILLER_9_149 VGND VGND VPWR VPWR sky130_ef_sc_hd__decap_12
XFILLER_42_85 VGND VGND VPWR VPWR sky130_ef_sc_hd__decap_12
XFILLER_68_307 VGND VGND VPWR VPWR sky130_fd_sc_hd__fill_1
XFILLER_3_57 VGND VGND VPWR VPWR sky130_ef_sc_hd__decap_12
XFILLER_49_521 VGND VGND VPWR VPWR sky130_fd_sc_hd__fill_1
Xsb_0__1_.mux_right_track_6.mux_l2_in_1__257 VGND VGND VPWR VPWR sb_0__1_.mux_right_track_6.mux_l2_in_1__257/HI
+ net257 sky130_fd_sc_hd__conb_1
XFILLER_67_93 VGND VGND VPWR VPWR sky130_ef_sc_hd__decap_12
XFILLER_36_237 VGND VGND VPWR VPWR sky130_fd_sc_hd__decap_4
XFILLER_36_259 VGND VGND VPWR VPWR sky130_fd_sc_hd__fill_1
XFILLER_17_473 VGND VGND VPWR VPWR sky130_fd_sc_hd__fill_1
XFILLER_83_81 VGND VGND VPWR VPWR sky130_ef_sc_hd__decap_12
XFILLER_32_421 VGND VGND VPWR VPWR sky130_ef_sc_hd__decap_12
XFILLER_44_270 VGND VGND VPWR VPWR sky130_fd_sc_hd__fill_1
XFILLER_32_465 VGND VGND VPWR VPWR sky130_fd_sc_hd__fill_1
XFILLER_80_3 VGND VGND VPWR VPWR sky130_fd_sc_hd__fill_2
Xcby_0__1_.cby_0__1_.mem_right_ipin_2.sky130_fd_sc_hd__dfrtp_1_0_ clknet_4_1_0_prog_clk
+ cby_0__1_.cby_0__1_.mem_right_ipin_1.ccff_tail net98 VGND VGND VPWR VPWR cby_0__1_.cby_0__1_.mem_right_ipin_2.mem_out\[0\]
+ sky130_fd_sc_hd__dfrtp_4
XFILLER_55_513 VGND VGND VPWR VPWR sky130_fd_sc_hd__fill_2
XFILLER_67_362 VGND VGND VPWR VPWR sky130_fd_sc_hd__decap_4
XFILLER_82_321 VGND VGND VPWR VPWR sky130_ef_sc_hd__decap_12
XFILLER_82_365 VGND VGND VPWR VPWR sky130_ef_sc_hd__decap_12
XFILLER_35_270 VGND VGND VPWR VPWR sky130_fd_sc_hd__decap_8
XFILLER_35_281 VGND VGND VPWR VPWR sky130_fd_sc_hd__decap_8
XFILLER_42_229 VGND VGND VPWR VPWR sky130_fd_sc_hd__fill_1
XFILLER_23_443 VGND VGND VPWR VPWR sky130_fd_sc_hd__decap_4
XFILLER_50_251 VGND VGND VPWR VPWR sky130_fd_sc_hd__fill_1
Xsb_0__1_.mem_right_track_22.sky130_fd_sc_hd__dfrtp_1_1_ clknet_4_12_0_prog_clk sb_0__1_.mem_right_track_22.mem_out\[0\]
+ net98 VGND VGND VPWR VPWR sb_0__1_.mem_right_track_22.mem_out\[1\] sky130_fd_sc_hd__dfrtp_1
XFILLER_12_77 VGND VGND VPWR VPWR sky130_fd_sc_hd__decap_6
XFILLER_88_15 VGND VGND VPWR VPWR sky130_ef_sc_hd__decap_12
XFILLER_2_347 VGND VGND VPWR VPWR sky130_ef_sc_hd__decap_12
XFILLER_77_137 VGND VGND VPWR VPWR sky130_fd_sc_hd__decap_4
XFILLER_92_129 VGND VGND VPWR VPWR sky130_fd_sc_hd__decap_8
XFILLER_58_362 VGND VGND VPWR VPWR sky130_fd_sc_hd__fill_2
XFILLER_58_373 VGND VGND VPWR VPWR sky130_fd_sc_hd__fill_1
XFILLER_73_310 VGND VGND VPWR VPWR sky130_fd_sc_hd__decap_4
XFILLER_85_181 VGND VGND VPWR VPWR sky130_ef_sc_hd__decap_12
XFILLER_61_505 VGND VGND VPWR VPWR sky130_ef_sc_hd__decap_12
XFILLER_73_376 VGND VGND VPWR VPWR sky130_ef_sc_hd__decap_12
XFILLER_14_421 VGND VGND VPWR VPWR sky130_ef_sc_hd__decap_12
XFILLER_26_270 VGND VGND VPWR VPWR sky130_fd_sc_hd__fill_1
XFILLER_26_292 VGND VGND VPWR VPWR sky130_ef_sc_hd__decap_12
XFILLER_53_51 VGND VGND VPWR VPWR sky130_fd_sc_hd__decap_4
XFILLER_41_273 VGND VGND VPWR VPWR sky130_fd_sc_hd__decap_6
Xclkbuf_4_6_0_prog_clk clknet_0_prog_clk VGND VGND VPWR VPWR clknet_4_6_0_prog_clk
+ sky130_fd_sc_hd__clkbuf_8
XFILLER_1_391 VGND VGND VPWR VPWR sky130_fd_sc_hd__fill_1
XFILLER_49_384 VGND VGND VPWR VPWR sky130_fd_sc_hd__decap_8
XFILLER_64_365 VGND VGND VPWR VPWR sky130_ef_sc_hd__decap_12
XFILLER_17_281 VGND VGND VPWR VPWR sky130_ef_sc_hd__decap_12
XFILLER_20_402 VGND VGND VPWR VPWR sky130_fd_sc_hd__decap_4
XFILLER_32_251 VGND VGND VPWR VPWR sky130_fd_sc_hd__fill_1
Xsb_0__1_.mux_top_track_12.mux_l3_in_0_ sb_0__1_.mux_top_track_12.sky130_fd_sc_hd__mux2_1_4_X
+ sb_0__1_.mux_top_track_12.sky130_fd_sc_hd__mux2_1_3_X sb_0__1_.mem_top_track_12.ccff_tail
+ VGND VGND VPWR VPWR sb_0__1_.mux_top_track_12.sky130_fd_sc_hd__mux2_1_5_X sky130_fd_sc_hd__mux2_1
XFILLER_20_468 VGND VGND VPWR VPWR sky130_fd_sc_hd__decap_8
Xoutput210 net210 VGND VGND VPWR VPWR gfpga_pad_io_soc_dir[0] sky130_fd_sc_hd__buf_12
Xoutput221 net221 VGND VGND VPWR VPWR reset_bottom_out sky130_fd_sc_hd__buf_12
XFILLER_58_29 VGND VGND VPWR VPWR sky130_ef_sc_hd__decap_12
XFILLER_59_137 VGND VGND VPWR VPWR sky130_ef_sc_hd__decap_12
XFILLER_95_490 VGND VGND VPWR VPWR sky130_fd_sc_hd__fill_2
XFILLER_67_181 VGND VGND VPWR VPWR sky130_ef_sc_hd__decap_12
XFILLER_43_505 VGND VGND VPWR VPWR sky130_ef_sc_hd__decap_12
XFILLER_82_195 VGND VGND VPWR VPWR sky130_fd_sc_hd__fill_1
Xsb_0__1_.mem_right_track_54.sky130_fd_sc_hd__dfrtp_1_0_ clknet_4_10_0_prog_clk sb_0__1_.mem_right_track_52.ccff_tail