* NGSPICE file created from left_tile.ext - technology: sky130A

* Black-box entry subcircuit for sky130_fd_sc_hd__diode_2 abstract view
.subckt sky130_fd_sc_hd__diode_2 DIODE VGND VNB VPB VPWR
.ends

* Black-box entry subcircuit for sky130_fd_sc_hd__decap_6 abstract view
.subckt sky130_fd_sc_hd__decap_6 VGND VNB VPB VPWR
.ends

* Black-box entry subcircuit for sky130_fd_sc_hd__fill_2 abstract view
.subckt sky130_fd_sc_hd__fill_2 VGND VNB VPB VPWR
.ends

* Black-box entry subcircuit for sky130_fd_sc_hd__mux2_1 abstract view
.subckt sky130_fd_sc_hd__mux2_1 A0 A1 S VGND VNB VPB VPWR X
.ends

* Black-box entry subcircuit for sky130_fd_sc_hd__tapvpwrvgnd_1 abstract view
.subckt sky130_fd_sc_hd__tapvpwrvgnd_1 VGND VPWR
.ends

* Black-box entry subcircuit for sky130_ef_sc_hd__decap_12 abstract view
.subckt sky130_ef_sc_hd__decap_12 VGND VNB VPB VPWR
.ends

* Black-box entry subcircuit for sky130_fd_sc_hd__fill_1 abstract view
.subckt sky130_fd_sc_hd__fill_1 VGND VNB VPB VPWR
.ends

* Black-box entry subcircuit for sky130_fd_sc_hd__decap_4 abstract view
.subckt sky130_fd_sc_hd__decap_4 VGND VNB VPB VPWR
.ends

* Black-box entry subcircuit for sky130_fd_sc_hd__dfrtp_2 abstract view
.subckt sky130_fd_sc_hd__dfrtp_2 CLK D RESET_B VGND VNB VPB VPWR Q
.ends

* Black-box entry subcircuit for sky130_fd_sc_hd__clkbuf_1 abstract view
.subckt sky130_fd_sc_hd__clkbuf_1 A VGND VNB VPB VPWR X
.ends

* Black-box entry subcircuit for sky130_fd_sc_hd__dfrtp_1 abstract view
.subckt sky130_fd_sc_hd__dfrtp_1 CLK D RESET_B VGND VNB VPB VPWR Q
.ends

* Black-box entry subcircuit for sky130_fd_sc_hd__clkbuf_2 abstract view
.subckt sky130_fd_sc_hd__clkbuf_2 A VGND VNB VPB VPWR X
.ends

* Black-box entry subcircuit for sky130_fd_sc_hd__decap_8 abstract view
.subckt sky130_fd_sc_hd__decap_8 VGND VNB VPB VPWR
.ends

* Black-box entry subcircuit for sky130_fd_sc_hd__ebufn_8 abstract view
.subckt sky130_fd_sc_hd__ebufn_8 A TE_B VGND VNB VPB VPWR Z
.ends

* Black-box entry subcircuit for sky130_fd_sc_hd__clkdlybuf4s25_1 abstract view
.subckt sky130_fd_sc_hd__clkdlybuf4s25_1 A VGND VNB VPB VPWR X
.ends

* Black-box entry subcircuit for sky130_fd_sc_hd__conb_1 abstract view
.subckt sky130_fd_sc_hd__conb_1 VGND VNB VPB VPWR HI LO
.ends

* Black-box entry subcircuit for sky130_fd_sc_hd__decap_3 abstract view
.subckt sky130_fd_sc_hd__decap_3 VGND VNB VPB VPWR
.ends

* Black-box entry subcircuit for sky130_fd_sc_hd__dfrtp_4 abstract view
.subckt sky130_fd_sc_hd__dfrtp_4 CLK D RESET_B VGND VNB VPB VPWR Q
.ends

* Black-box entry subcircuit for sky130_fd_sc_hd__clkbuf_8 abstract view
.subckt sky130_fd_sc_hd__clkbuf_8 A VGND VNB VPB VPWR X
.ends

* Black-box entry subcircuit for sky130_fd_sc_hd__buf_12 abstract view
.subckt sky130_fd_sc_hd__buf_12 A VGND VNB VPB VPWR X
.ends

* Black-box entry subcircuit for sky130_fd_sc_hd__buf_2 abstract view
.subckt sky130_fd_sc_hd__buf_2 A VGND VNB VPB VPWR X
.ends

* Black-box entry subcircuit for sky130_fd_sc_hd__dlymetal6s2s_1 abstract view
.subckt sky130_fd_sc_hd__dlymetal6s2s_1 A VGND VNB VPB VPWR X
.ends

* Black-box entry subcircuit for sky130_fd_sc_hd__or2b_2 abstract view
.subckt sky130_fd_sc_hd__or2b_2 A B_N VGND VNB VPB VPWR X
.ends

* Black-box entry subcircuit for sky130_fd_sc_hd__inv_1 abstract view
.subckt sky130_fd_sc_hd__inv_1 A VGND VNB VPB VPWR Y
.ends

* Black-box entry subcircuit for sky130_fd_sc_hd__clkbuf_4 abstract view
.subckt sky130_fd_sc_hd__clkbuf_4 A VGND VNB VPB VPWR X
.ends

* Black-box entry subcircuit for sky130_fd_sc_hd__clkbuf_16 abstract view
.subckt sky130_fd_sc_hd__clkbuf_16 A VGND VNB VPB VPWR X
.ends

* Black-box entry subcircuit for sky130_fd_sc_hd__clkdlybuf4s50_1 abstract view
.subckt sky130_fd_sc_hd__clkdlybuf4s50_1 A VGND VNB VPB VPWR X
.ends

.subckt left_tile VGND VPWR ccff_head ccff_head_0 ccff_tail ccff_tail_0 chanx_right_in[0]
+ chanx_right_in[10] chanx_right_in[11] chanx_right_in[12] chanx_right_in[13] chanx_right_in[14]
+ chanx_right_in[15] chanx_right_in[16] chanx_right_in[17] chanx_right_in[18] chanx_right_in[19]
+ chanx_right_in[1] chanx_right_in[20] chanx_right_in[21] chanx_right_in[22] chanx_right_in[23]
+ chanx_right_in[24] chanx_right_in[25] chanx_right_in[26] chanx_right_in[27] chanx_right_in[28]
+ chanx_right_in[29] chanx_right_in[2] chanx_right_in[3] chanx_right_in[4] chanx_right_in[5]
+ chanx_right_in[6] chanx_right_in[7] chanx_right_in[8] chanx_right_in[9] chanx_right_out[0]
+ chanx_right_out[10] chanx_right_out[11] chanx_right_out[12] chanx_right_out[13]
+ chanx_right_out[14] chanx_right_out[15] chanx_right_out[16] chanx_right_out[17]
+ chanx_right_out[18] chanx_right_out[19] chanx_right_out[1] chanx_right_out[20] chanx_right_out[21]
+ chanx_right_out[22] chanx_right_out[23] chanx_right_out[24] chanx_right_out[25]
+ chanx_right_out[26] chanx_right_out[27] chanx_right_out[28] chanx_right_out[29]
+ chanx_right_out[2] chanx_right_out[3] chanx_right_out[4] chanx_right_out[5] chanx_right_out[6]
+ chanx_right_out[7] chanx_right_out[8] chanx_right_out[9] chany_bottom_in[0] chany_bottom_in[10]
+ chany_bottom_in[11] chany_bottom_in[12] chany_bottom_in[13] chany_bottom_in[14]
+ chany_bottom_in[15] chany_bottom_in[16] chany_bottom_in[17] chany_bottom_in[18]
+ chany_bottom_in[19] chany_bottom_in[1] chany_bottom_in[20] chany_bottom_in[21] chany_bottom_in[22]
+ chany_bottom_in[23] chany_bottom_in[24] chany_bottom_in[25] chany_bottom_in[26]
+ chany_bottom_in[27] chany_bottom_in[28] chany_bottom_in[29] chany_bottom_in[2] chany_bottom_in[3]
+ chany_bottom_in[4] chany_bottom_in[5] chany_bottom_in[6] chany_bottom_in[7] chany_bottom_in[8]
+ chany_bottom_in[9] chany_bottom_out[0] chany_bottom_out[10] chany_bottom_out[11]
+ chany_bottom_out[12] chany_bottom_out[13] chany_bottom_out[14] chany_bottom_out[15]
+ chany_bottom_out[16] chany_bottom_out[17] chany_bottom_out[18] chany_bottom_out[19]
+ chany_bottom_out[1] chany_bottom_out[20] chany_bottom_out[21] chany_bottom_out[22]
+ chany_bottom_out[23] chany_bottom_out[24] chany_bottom_out[25] chany_bottom_out[26]
+ chany_bottom_out[27] chany_bottom_out[28] chany_bottom_out[29] chany_bottom_out[2]
+ chany_bottom_out[3] chany_bottom_out[4] chany_bottom_out[5] chany_bottom_out[6]
+ chany_bottom_out[7] chany_bottom_out[8] chany_bottom_out[9] chany_top_in_0[0] chany_top_in_0[10]
+ chany_top_in_0[11] chany_top_in_0[12] chany_top_in_0[13] chany_top_in_0[14] chany_top_in_0[15]
+ chany_top_in_0[16] chany_top_in_0[17] chany_top_in_0[18] chany_top_in_0[19] chany_top_in_0[1]
+ chany_top_in_0[20] chany_top_in_0[21] chany_top_in_0[22] chany_top_in_0[23] chany_top_in_0[24]
+ chany_top_in_0[25] chany_top_in_0[26] chany_top_in_0[27] chany_top_in_0[28] chany_top_in_0[29]
+ chany_top_in_0[2] chany_top_in_0[3] chany_top_in_0[4] chany_top_in_0[5] chany_top_in_0[6]
+ chany_top_in_0[7] chany_top_in_0[8] chany_top_in_0[9] chany_top_out_0[0] chany_top_out_0[10]
+ chany_top_out_0[11] chany_top_out_0[12] chany_top_out_0[13] chany_top_out_0[14]
+ chany_top_out_0[15] chany_top_out_0[16] chany_top_out_0[17] chany_top_out_0[18]
+ chany_top_out_0[19] chany_top_out_0[1] chany_top_out_0[20] chany_top_out_0[21] chany_top_out_0[22]
+ chany_top_out_0[23] chany_top_out_0[24] chany_top_out_0[25] chany_top_out_0[26]
+ chany_top_out_0[27] chany_top_out_0[28] chany_top_out_0[29] chany_top_out_0[2] chany_top_out_0[3]
+ chany_top_out_0[4] chany_top_out_0[5] chany_top_out_0[6] chany_top_out_0[7] chany_top_out_0[8]
+ chany_top_out_0[9] gfpga_pad_io_soc_dir[0] gfpga_pad_io_soc_dir[1] gfpga_pad_io_soc_dir[2]
+ gfpga_pad_io_soc_dir[3] gfpga_pad_io_soc_in[0] gfpga_pad_io_soc_in[1] gfpga_pad_io_soc_in[2]
+ gfpga_pad_io_soc_in[3] gfpga_pad_io_soc_out[0] gfpga_pad_io_soc_out[1] gfpga_pad_io_soc_out[2]
+ gfpga_pad_io_soc_out[3] isol_n prog_clk prog_reset reset right_bottom_grid_top_width_0_height_0_subtile_0__pin_O_0_
+ right_bottom_grid_top_width_0_height_0_subtile_0__pin_O_1_ right_bottom_grid_top_width_0_height_0_subtile_0__pin_O_2_
+ right_bottom_grid_top_width_0_height_0_subtile_0__pin_O_3_ right_bottom_grid_top_width_0_height_0_subtile_0__pin_O_4_
+ right_bottom_grid_top_width_0_height_0_subtile_0__pin_O_5_ right_bottom_grid_top_width_0_height_0_subtile_0__pin_O_6_
+ right_bottom_grid_top_width_0_height_0_subtile_0__pin_O_7_ right_width_0_height_0_subtile_0__pin_inpad_0_
+ right_width_0_height_0_subtile_1__pin_inpad_0_ right_width_0_height_0_subtile_2__pin_inpad_0_
+ right_width_0_height_0_subtile_3__pin_inpad_0_ test_enable top_left_grid_right_width_0_height_0_subtile_0__pin_inpad_0_
+ top_left_grid_right_width_0_height_0_subtile_1__pin_inpad_0_ top_left_grid_right_width_0_height_0_subtile_2__pin_inpad_0_
+ top_left_grid_right_width_0_height_0_subtile_3__pin_inpad_0_
XANTENNA_sb_0__1_.mem_top_track_0.sky130_fd_sc_hd__dfrtp_1_1__RESET_B net98 VGND VGND
+ VPWR VPWR sky130_fd_sc_hd__diode_2
XFILLER_54_236 VGND VGND VPWR VPWR sky130_fd_sc_hd__decap_6
XFILLER_39_222 VGND VGND VPWR VPWR sky130_fd_sc_hd__fill_2
Xcby_0__1_.cby_0__1_.mux_right_ipin_1.mux_l1_in_4_ net65 net34 cby_0__1_.cby_0__1_.mem_right_ipin_1.mem_out\[0\]
+ VGND VGND VPWR VPWR cby_0__1_.cby_0__1_.mux_right_ipin_1.sky130_fd_sc_hd__mux2_1_4_X
+ sky130_fd_sc_hd__mux2_1
XTAP_199 VGND VPWR sky130_fd_sc_hd__tapvpwrvgnd_1
XFILLER_52_29 VGND VGND VPWR VPWR sky130_ef_sc_hd__decap_12
XFILLER_89_111 VGND VGND VPWR VPWR sky130_fd_sc_hd__fill_1
XFILLER_77_15 VGND VGND VPWR VPWR sky130_ef_sc_hd__decap_12
XANTENNA_sb_0__1_.mux_top_track_10.mux_l1_in_0__A1 top_left_grid_right_width_0_height_0_subtile_1__pin_inpad_0_
+ VGND VGND VPWR VPWR sky130_fd_sc_hd__diode_2
XANTENNA_sb_0__1_.mem_top_track_10.sky130_fd_sc_hd__dfrtp_1_1__RESET_B net98 VGND
+ VGND VPWR VPWR sky130_fd_sc_hd__diode_2
XFILLER_93_69 VGND VGND VPWR VPWR sky130_fd_sc_hd__decap_4
XFILLER_45_225 VGND VGND VPWR VPWR sky130_fd_sc_hd__fill_2
XFILLER_26_41 VGND VGND VPWR VPWR sky130_ef_sc_hd__decap_12
XFILLER_26_85 VGND VGND VPWR VPWR sky130_fd_sc_hd__fill_2
XFILLER_26_96 VGND VGND VPWR VPWR sky130_fd_sc_hd__decap_4
XANTENNA_input92_A chany_top_in_0[9] VGND VGND VPWR VPWR sky130_fd_sc_hd__diode_2
XFILLER_9_137 VGND VGND VPWR VPWR sky130_ef_sc_hd__decap_12
XANTENNA_cby_0__1_.cby_0__1_.mux_right_ipin_1.mux_l1_in_1__A1 net50 VGND VGND VPWR
+ VPWR sky130_fd_sc_hd__diode_2
XANTENNA_sb_0__1_.mux_right_track_16.mux_l2_in_1__A1 net38 VGND VGND VPWR VPWR sky130_fd_sc_hd__diode_2
XFILLER_3_12 VGND VGND VPWR VPWR sky130_ef_sc_hd__decap_12
XFILLER_95_169 VGND VGND VPWR VPWR sky130_fd_sc_hd__fill_2
XFILLER_95_147 VGND VGND VPWR VPWR sky130_fd_sc_hd__fill_2
XFILLER_83_91 VGND VGND VPWR VPWR sky130_ef_sc_hd__decap_12
Xcby_0__1_.cby_0__1_.mux_right_ipin_1.mux_l4_in_0_ cby_0__1_.cby_0__1_.mux_right_ipin_1.sky130_fd_sc_hd__mux2_1_10_X
+ cby_0__1_.cby_0__1_.mux_right_ipin_1.sky130_fd_sc_hd__mux2_1_9_X cby_0__1_.cby_0__1_.mem_right_ipin_1.ccff_tail
+ VGND VGND VPWR VPWR cby_0__1_.cby_0__1_.mux_right_ipin_1.sky130_fd_sc_hd__mux2_1_11_X
+ sky130_fd_sc_hd__mux2_1
XFILLER_86_125 VGND VGND VPWR VPWR sky130_fd_sc_hd__fill_1
Xcby_0__1_.cby_0__1_.mem_right_ipin_2.sky130_fd_sc_hd__dfrtp_1_1_ clknet_4_1_0_prog_clk
+ cby_0__1_.cby_0__1_.mem_right_ipin_2.mem_out\[0\] net98 VGND VGND VPWR VPWR cby_0__1_.cby_0__1_.mem_right_ipin_2.mem_out\[1\]
+ sky130_fd_sc_hd__dfrtp_2
XFILLER_94_180 VGND VGND VPWR VPWR sky130_fd_sc_hd__decap_4
XANTENNA_sb_0__1_.mux_bottom_track_45.mux_l1_in_0__A1 net67 VGND VGND VPWR VPWR sky130_fd_sc_hd__diode_2
XANTENNA_sb_0__1_.mem_top_track_6.sky130_fd_sc_hd__dfrtp_1_1__RESET_B net98 VGND VGND
+ VPWR VPWR sky130_fd_sc_hd__diode_2
XFILLER_63_39 VGND VGND VPWR VPWR sky130_ef_sc_hd__decap_12
XFILLER_27_225 VGND VGND VPWR VPWR sky130_fd_sc_hd__fill_2
XFILLER_27_247 VGND VGND VPWR VPWR sky130_fd_sc_hd__fill_1
Xsb_0__1_.mux_right_track_14.sky130_fd_sc_hd__buf_4_0_ sb_0__1_.mux_right_track_14.sky130_fd_sc_hd__mux2_1_3_X
+ VGND VGND VPWR VPWR sb_0__1_.mux_right_track_14.out sky130_fd_sc_hd__clkbuf_1
Xsb_0__1_.mem_right_track_22.sky130_fd_sc_hd__dfrtp_1_2_ clknet_4_9_0_prog_clk sb_0__1_.mem_right_track_22.mem_out\[1\]
+ net98 VGND VGND VPWR VPWR sb_0__1_.mem_right_track_22.ccff_tail sky130_fd_sc_hd__dfrtp_1
XANTENNA_sb_0__1_.mux_right_track_34.mux_l1_in_0__A0 net102 VGND VGND VPWR VPWR sky130_fd_sc_hd__diode_2
XFILLER_92_128 VGND VGND VPWR VPWR sky130_fd_sc_hd__decap_4
XFILLER_77_169 VGND VGND VPWR VPWR sky130_fd_sc_hd__fill_2
XFILLER_37_73 VGND VGND VPWR VPWR sky130_fd_sc_hd__decap_4
XFILLER_53_83 VGND VGND VPWR VPWR sky130_fd_sc_hd__decap_6
XFILLER_78_91 VGND VGND VPWR VPWR sky130_fd_sc_hd__fill_2
XFILLER_68_136 VGND VGND VPWR VPWR sky130_fd_sc_hd__decap_4
XFILLER_68_103 VGND VGND VPWR VPWR sky130_fd_sc_hd__decap_4
XANTENNA_sb_0__1_.mux_bottom_track_11.mux_l1_in_0__A0 net88 VGND VGND VPWR VPWR sky130_fd_sc_hd__diode_2
XFILLER_5_195 VGND VGND VPWR VPWR sky130_fd_sc_hd__decap_4
XFILLER_83_117 VGND VGND VPWR VPWR sky130_fd_sc_hd__fill_1
XFILLER_32_250 VGND VGND VPWR VPWR sky130_fd_sc_hd__fill_2
XFILLER_74_27 VGND VGND VPWR VPWR sky130_fd_sc_hd__fill_1
XFILLER_67_191 VGND VGND VPWR VPWR sky130_fd_sc_hd__fill_2
XFILLER_59_169 VGND VGND VPWR VPWR sky130_fd_sc_hd__decap_6
XFILLER_90_26 VGND VGND VPWR VPWR sky130_fd_sc_hd__fill_2
XFILLER_82_194 VGND VGND VPWR VPWR sky130_fd_sc_hd__fill_2
XFILLER_82_183 VGND VGND VPWR VPWR sky130_fd_sc_hd__fill_2
X_200_ cby_0__1_.grid_io_left_left_0__1_.logical_tile_io_mode_io__1.gfpga_pad_io_soc_dir
+ VGND VGND VPWR VPWR net200 sky130_fd_sc_hd__clkbuf_1
XFILLER_15_217 VGND VGND VPWR VPWR sky130_fd_sc_hd__fill_2
Xsb_0__1_.mem_right_track_54.sky130_fd_sc_hd__dfrtp_1_1_ clknet_4_4_0_prog_clk net270
+ net98 VGND VGND VPWR VPWR sb_0__1_.mem_right_track_54.ccff_tail sky130_fd_sc_hd__dfrtp_1
Xsb_0__1_.mux_right_track_8.mux_l1_in_0_ net73 net80 sb_0__1_.mem_right_track_8.mem_out\[0\]
+ VGND VGND VPWR VPWR sb_0__1_.mux_right_track_8.sky130_fd_sc_hd__mux2_1_0_X sky130_fd_sc_hd__mux2_1
X_131_ sb_0__1_.mux_right_track_12.out VGND VGND VPWR VPWR net123 sky130_fd_sc_hd__clkbuf_2
XANTENNA_sb_0__1_.mux_right_track_26.mux_l1_in_0__A1 net90 VGND VGND VPWR VPWR sky130_fd_sc_hd__diode_2
XFILLER_2_187 VGND VGND VPWR VPWR sky130_fd_sc_hd__decap_8
XFILLER_2_121 VGND VGND VPWR VPWR sky130_fd_sc_hd__fill_1
XANTENNA_input55_A chany_bottom_in[2] VGND VGND VPWR VPWR sky130_fd_sc_hd__diode_2
Xcby_0__1_.cby_0__1_.mux_right_ipin_1.mux_l3_in_1_ cby_0__1_.cby_0__1_.mux_right_ipin_1.sky130_fd_sc_hd__mux2_1_8_X
+ cby_0__1_.cby_0__1_.mux_right_ipin_1.sky130_fd_sc_hd__mux2_1_7_X cby_0__1_.cby_0__1_.mem_right_ipin_1.mem_out\[2\]
+ VGND VGND VPWR VPWR cby_0__1_.cby_0__1_.mux_right_ipin_1.sky130_fd_sc_hd__mux2_1_10_X
+ sky130_fd_sc_hd__mux2_1
XFILLER_73_183 VGND VGND VPWR VPWR sky130_fd_sc_hd__fill_2
XFILLER_73_172 VGND VGND VPWR VPWR sky130_fd_sc_hd__fill_2
XFILLER_64_82 VGND VGND VPWR VPWR sky130_fd_sc_hd__fill_2
XFILLER_0_35 VGND VGND VPWR VPWR sky130_fd_sc_hd__decap_4
Xsb_0__1_.mux_bottom_track_11.mux_l1_in_0_ net88 net73 sb_0__1_.mem_bottom_track_11.mem_out\[0\]
+ VGND VGND VPWR VPWR sb_0__1_.mux_bottom_track_11.sky130_fd_sc_hd__mux2_1_0_X sky130_fd_sc_hd__mux2_1
XFILLER_9_55 VGND VGND VPWR VPWR sky130_fd_sc_hd__fill_1
XFILLER_14_250 VGND VGND VPWR VPWR sky130_fd_sc_hd__fill_2
XFILLER_88_209 VGND VGND VPWR VPWR sky130_ef_sc_hd__decap_12
XFILLER_50_3 VGND VGND VPWR VPWR sky130_ef_sc_hd__decap_12
XFILLER_56_139 VGND VGND VPWR VPWR sky130_fd_sc_hd__fill_1
XFILLER_49_180 VGND VGND VPWR VPWR sky130_fd_sc_hd__decap_4
Xcby_0__1_.grid_io_left_left_0__1_.logical_tile_io_mode_io__0.logical_tile_io_mode_physical__iopad_0.io_0_.OUT_PROTECT_GATE
+ cby_0__1_.cby_0__1_.left_grid_right_width_0_height_0_subtile_0__pin_outpad_0_ cby_0__1_.grid_io_left_left_0__1_.logical_tile_io_mode_io__0.gfpga_pad_io_soc_dir
+ VGND VGND VPWR VPWR gfpga_pad_io_soc_out[3] sky130_fd_sc_hd__ebufn_8
XFILLER_64_172 VGND VGND VPWR VPWR sky130_fd_sc_hd__decap_4
XFILLER_12_209 VGND VGND VPWR VPWR sky130_ef_sc_hd__decap_12
XFILLER_60_29 VGND VGND VPWR VPWR sky130_ef_sc_hd__decap_12
XFILLER_20_253 VGND VGND VPWR VPWR sky130_ef_sc_hd__decap_12
XFILLER_87_253 VGND VGND VPWR VPWR sky130_fd_sc_hd__fill_1
XFILLER_85_15 VGND VGND VPWR VPWR sky130_ef_sc_hd__decap_12
XFILLER_69_27 VGND VGND VPWR VPWR sky130_ef_sc_hd__decap_12
XFILLER_87_264 VGND VGND VPWR VPWR sky130_fd_sc_hd__fill_2
XFILLER_18_53 VGND VGND VPWR VPWR sky130_ef_sc_hd__decap_12
XFILLER_70_197 VGND VGND VPWR VPWR sky130_ef_sc_hd__decap_12
XFILLER_70_164 VGND VGND VPWR VPWR sky130_fd_sc_hd__decap_6
XFILLER_34_96 VGND VGND VPWR VPWR sky130_fd_sc_hd__fill_2
XFILLER_34_85 VGND VGND VPWR VPWR sky130_fd_sc_hd__fill_2
XFILLER_7_202 VGND VGND VPWR VPWR sky130_fd_sc_hd__decap_4
XFILLER_11_264 VGND VGND VPWR VPWR sky130_fd_sc_hd__fill_2
XTAP_507 VGND VPWR sky130_fd_sc_hd__tapvpwrvgnd_1
X_114_ sb_0__1_.mux_right_track_46.out VGND VGND VPWR VPWR net134 sky130_fd_sc_hd__clkbuf_1
XFILLER_93_212 VGND VGND VPWR VPWR sky130_fd_sc_hd__fill_2
XFILLER_78_253 VGND VGND VPWR VPWR sky130_fd_sc_hd__fill_2
XTAP_529 VGND VPWR sky130_fd_sc_hd__tapvpwrvgnd_1
XTAP_518 VGND VPWR sky130_fd_sc_hd__tapvpwrvgnd_1
XFILLER_75_70 VGND VGND VPWR VPWR sky130_fd_sc_hd__fill_2
XFILLER_61_164 VGND VGND VPWR VPWR sky130_fd_sc_hd__decap_4
XANTENNA_sb_0__1_.mem_bottom_track_3.sky130_fd_sc_hd__dfrtp_1_0__RESET_B net98 VGND
+ VGND VPWR VPWR sky130_fd_sc_hd__diode_2
Xsb_0__1_.mux_right_track_14.mux_l3_in_0_ sb_0__1_.mux_right_track_14.sky130_fd_sc_hd__mux2_1_2_X
+ sb_0__1_.mux_right_track_14.sky130_fd_sc_hd__mux2_1_1_X sb_0__1_.mem_right_track_14.ccff_tail
+ VGND VGND VPWR VPWR sb_0__1_.mux_right_track_14.sky130_fd_sc_hd__mux2_1_3_X sky130_fd_sc_hd__mux2_1
XFILLER_84_245 VGND VGND VPWR VPWR sky130_fd_sc_hd__decap_6
Xsb_0__1_.mux_right_track_56.mux_l1_in_0_ net54 net105 sb_0__1_.mem_right_track_56.mem_out\[0\]
+ VGND VGND VPWR VPWR sb_0__1_.mux_right_track_56.sky130_fd_sc_hd__mux2_1_0_X sky130_fd_sc_hd__mux2_1
XFILLER_52_197 VGND VGND VPWR VPWR sky130_fd_sc_hd__fill_2
Xcby_0__1_.cby_0__1_.mux_right_ipin_1.mux_l2_in_2_ net57 cby_0__1_.cby_0__1_.mux_right_ipin_1.sky130_fd_sc_hd__mux2_1_4_X
+ cby_0__1_.cby_0__1_.mem_right_ipin_1.mem_out\[1\] VGND VGND VPWR VPWR cby_0__1_.cby_0__1_.mux_right_ipin_1.sky130_fd_sc_hd__mux2_1_7_X
+ sky130_fd_sc_hd__mux2_1
XFILLER_20_65 VGND VGND VPWR VPWR sky130_ef_sc_hd__decap_12
Xhold74 sb_0__1_.mem_top_track_52.mem_out\[0\] VGND VGND VPWR VPWR net330 sky130_fd_sc_hd__clkdlybuf4s25_1
Xhold63 sb_0__1_.mem_top_track_20.ccff_tail VGND VGND VPWR VPWR net319 sky130_fd_sc_hd__clkdlybuf4s25_1
Xhold52 sb_0__1_.mem_right_track_0.ccff_tail VGND VGND VPWR VPWR net308 sky130_fd_sc_hd__clkdlybuf4s25_1
Xhold30 sb_0__1_.mem_right_track_36.ccff_tail VGND VGND VPWR VPWR net286 sky130_fd_sc_hd__clkdlybuf4s25_1
Xhold41 sb_0__1_.mem_right_track_50.ccff_tail VGND VGND VPWR VPWR net297 sky130_fd_sc_hd__clkdlybuf4s25_1
XFILLER_90_259 VGND VGND VPWR VPWR sky130_fd_sc_hd__fill_1
XANTENNA_input18_A chanx_right_in[23] VGND VGND VPWR VPWR sky130_fd_sc_hd__diode_2
Xhold96 sb_0__1_.mem_right_track_8.mem_out\[1\] VGND VGND VPWR VPWR net352 sky130_fd_sc_hd__clkdlybuf4s25_1
Xhold85 sb_0__1_.mem_top_track_4.mem_out\[1\] VGND VGND VPWR VPWR net341 sky130_fd_sc_hd__clkdlybuf4s25_1
XFILLER_43_142 VGND VGND VPWR VPWR sky130_fd_sc_hd__fill_1
XFILLER_28_194 VGND VGND VPWR VPWR sky130_fd_sc_hd__fill_2
XFILLER_61_72 VGND VGND VPWR VPWR sky130_fd_sc_hd__decap_4
Xsb_0__1_.mux_bottom_track_45.mux_l2_in_1__205 VGND VGND VPWR VPWR net205 sb_0__1_.mux_bottom_track_45.mux_l2_in_1__205/LO
+ sky130_fd_sc_hd__conb_1
XTAP_348 VGND VPWR sky130_fd_sc_hd__tapvpwrvgnd_1
XTAP_304 VGND VPWR sky130_fd_sc_hd__tapvpwrvgnd_1
XTAP_315 VGND VPWR sky130_fd_sc_hd__tapvpwrvgnd_1
XTAP_326 VGND VPWR sky130_fd_sc_hd__tapvpwrvgnd_1
XTAP_337 VGND VPWR sky130_fd_sc_hd__tapvpwrvgnd_1
XTAP_359 VGND VPWR sky130_fd_sc_hd__tapvpwrvgnd_1
Xsb_0__1_.mux_bottom_track_45.sky130_fd_sc_hd__buf_4_0_ sb_0__1_.mux_bottom_track_45.sky130_fd_sc_hd__mux2_1_3_X
+ VGND VGND VPWR VPWR sb_0__1_.mux_bottom_track_45.out sky130_fd_sc_hd__clkbuf_1
XFILLER_13_3 VGND VGND VPWR VPWR sky130_ef_sc_hd__decap_12
XFILLER_26_109 VGND VGND VPWR VPWR sky130_fd_sc_hd__decap_4
XFILLER_81_248 VGND VGND VPWR VPWR sky130_fd_sc_hd__fill_2
XFILLER_34_197 VGND VGND VPWR VPWR sky130_fd_sc_hd__decap_6
XFILLER_34_131 VGND VGND VPWR VPWR sky130_fd_sc_hd__decap_8
XFILLER_1_219 VGND VGND VPWR VPWR sky130_fd_sc_hd__decap_4
XFILLER_82_27 VGND VGND VPWR VPWR sky130_fd_sc_hd__fill_1
XANTENNA_sb_0__1_.mux_right_track_8.mux_l1_in_2__A0 net43 VGND VGND VPWR VPWR sky130_fd_sc_hd__diode_2
XFILLER_25_153 VGND VGND VPWR VPWR sky130_fd_sc_hd__decap_4
XFILLER_40_178 VGND VGND VPWR VPWR sky130_fd_sc_hd__decap_4
Xsb_0__1_.mem_top_track_10.sky130_fd_sc_hd__dfrtp_1_1_ clknet_4_8_0_prog_clk sb_0__1_.mem_top_track_10.mem_out\[0\]
+ net98 VGND VGND VPWR VPWR sb_0__1_.mem_top_track_10.mem_out\[1\] sky130_fd_sc_hd__dfrtp_1
XFILLER_31_97 VGND VGND VPWR VPWR sky130_fd_sc_hd__decap_4
XFILLER_56_83 VGND VGND VPWR VPWR sky130_fd_sc_hd__fill_1
XPHY_170 VGND VGND VPWR VPWR sky130_fd_sc_hd__decap_3
XFILLER_16_197 VGND VGND VPWR VPWR sky130_fd_sc_hd__decap_3
XFILLER_31_167 VGND VGND VPWR VPWR sky130_fd_sc_hd__fill_1
XPHY_181 VGND VGND VPWR VPWR sky130_fd_sc_hd__decap_3
Xsb_0__1_.mux_right_track_14.mux_l2_in_1_ net212 net39 sb_0__1_.mem_right_track_14.mem_out\[1\]
+ VGND VGND VPWR VPWR sb_0__1_.mux_right_track_14.sky130_fd_sc_hd__mux2_1_2_X sky130_fd_sc_hd__mux2_1
XANTENNA_sb_0__1_.mux_bottom_track_53.mux_l1_in_0__A1 net65 VGND VGND VPWR VPWR sky130_fd_sc_hd__diode_2
XFILLER_54_259 VGND VGND VPWR VPWR sky130_fd_sc_hd__fill_2
XFILLER_54_226 VGND VGND VPWR VPWR sky130_fd_sc_hd__fill_1
XFILLER_39_256 VGND VGND VPWR VPWR sky130_fd_sc_hd__decap_4
Xcby_0__1_.cby_0__1_.mux_right_ipin_1.mux_l1_in_3_ net71 net40 cby_0__1_.cby_0__1_.mem_right_ipin_1.mem_out\[0\]
+ VGND VGND VPWR VPWR cby_0__1_.cby_0__1_.mux_right_ipin_1.sky130_fd_sc_hd__mux2_1_3_X
+ sky130_fd_sc_hd__mux2_1
XANTENNA_sb_0__1_.mem_right_track_24.sky130_fd_sc_hd__dfrtp_1_1__RESET_B net98 VGND
+ VGND VPWR VPWR sky130_fd_sc_hd__diode_2
XFILLER_77_27 VGND VGND VPWR VPWR sky130_ef_sc_hd__decap_12
XFILLER_89_167 VGND VGND VPWR VPWR sky130_fd_sc_hd__fill_1
XFILLER_45_259 VGND VGND VPWR VPWR sky130_fd_sc_hd__fill_2
XFILLER_45_248 VGND VGND VPWR VPWR sky130_fd_sc_hd__fill_2
XFILLER_9_105 VGND VGND VPWR VPWR sky130_fd_sc_hd__decap_6
XFILLER_13_167 VGND VGND VPWR VPWR sky130_fd_sc_hd__fill_1
XANTENNA_input85_A chany_top_in_0[2] VGND VGND VPWR VPWR sky130_fd_sc_hd__diode_2
XFILLER_42_85 VGND VGND VPWR VPWR sky130_fd_sc_hd__decap_3
XFILLER_9_149 VGND VGND VPWR VPWR sky130_ef_sc_hd__decap_12
Xsb_0__1_.mux_right_track_6.mux_l2_in_1__235 VGND VGND VPWR VPWR net235 sb_0__1_.mux_right_track_6.mux_l2_in_1__235/LO
+ sky130_fd_sc_hd__conb_1
XFILLER_47_9 VGND VGND VPWR VPWR sky130_fd_sc_hd__fill_1
XFILLER_3_24 VGND VGND VPWR VPWR sky130_ef_sc_hd__decap_12
XFILLER_36_259 VGND VGND VPWR VPWR sky130_fd_sc_hd__fill_2
XFILLER_36_215 VGND VGND VPWR VPWR sky130_fd_sc_hd__fill_2
XFILLER_83_81 VGND VGND VPWR VPWR sky130_fd_sc_hd__decap_6
XFILLER_80_3 VGND VGND VPWR VPWR sky130_ef_sc_hd__decap_12
XFILLER_86_137 VGND VGND VPWR VPWR sky130_fd_sc_hd__decap_3
Xcby_0__1_.cby_0__1_.mem_right_ipin_2.sky130_fd_sc_hd__dfrtp_1_0_ clknet_4_0_0_prog_clk
+ net292 net98 VGND VGND VPWR VPWR cby_0__1_.cby_0__1_.mem_right_ipin_2.mem_out\[0\]
+ sky130_fd_sc_hd__dfrtp_4
XFILLER_27_204 VGND VGND VPWR VPWR sky130_fd_sc_hd__fill_2
XFILLER_50_251 VGND VGND VPWR VPWR sky130_fd_sc_hd__fill_1
XFILLER_42_229 VGND VGND VPWR VPWR sky130_fd_sc_hd__decap_4
Xsb_0__1_.mem_right_track_22.sky130_fd_sc_hd__dfrtp_1_1_ clknet_4_9_0_prog_clk net332
+ net98 VGND VGND VPWR VPWR sb_0__1_.mem_right_track_22.mem_out\[1\] sky130_fd_sc_hd__dfrtp_1
XANTENNA_sb_0__1_.mux_right_track_34.mux_l1_in_0__A1 net85 VGND VGND VPWR VPWR sky130_fd_sc_hd__diode_2
XFILLER_88_26 VGND VGND VPWR VPWR sky130_fd_sc_hd__fill_2
XFILLER_77_126 VGND VGND VPWR VPWR sky130_fd_sc_hd__decap_4
XFILLER_77_115 VGND VGND VPWR VPWR sky130_fd_sc_hd__fill_2
XFILLER_85_181 VGND VGND VPWR VPWR sky130_ef_sc_hd__decap_12
XFILLER_37_96 VGND VGND VPWR VPWR sky130_fd_sc_hd__fill_1
XFILLER_18_237 VGND VGND VPWR VPWR sky130_fd_sc_hd__decap_4
XFILLER_41_262 VGND VGND VPWR VPWR sky130_fd_sc_hd__decap_4
XANTENNA_sb_0__1_.mem_right_track_10.sky130_fd_sc_hd__dfrtp_1_0__RESET_B net98 VGND
+ VGND VPWR VPWR sky130_fd_sc_hd__diode_2
Xclkbuf_4_6_0_prog_clk clknet_0_prog_clk VGND VGND VPWR VPWR clknet_4_6_0_prog_clk
+ sky130_fd_sc_hd__clkbuf_8
XANTENNA_sb_0__1_.mux_bottom_track_11.mux_l1_in_0__A1 net73 VGND VGND VPWR VPWR sky130_fd_sc_hd__diode_2
XANTENNA__140__A net86 VGND VGND VPWR VPWR sky130_fd_sc_hd__diode_2
XFILLER_24_229 VGND VGND VPWR VPWR sky130_fd_sc_hd__decap_4
Xsb_0__1_.mux_top_track_12.mux_l3_in_0_ sb_0__1_.mux_top_track_12.sky130_fd_sc_hd__mux2_1_4_X
+ sb_0__1_.mux_top_track_12.sky130_fd_sc_hd__mux2_1_3_X sb_0__1_.mem_top_track_12.ccff_tail
+ VGND VGND VPWR VPWR sb_0__1_.mux_top_track_12.sky130_fd_sc_hd__mux2_1_5_X sky130_fd_sc_hd__mux2_1
XANTENNA_sb_0__1_.mem_top_track_4.sky130_fd_sc_hd__dfrtp_1_2__RESET_B net98 VGND VGND
+ VPWR VPWR sky130_fd_sc_hd__diode_2
XANTENNA_sb_0__1_.mux_top_track_10.mux_l1_in_0__S sb_0__1_.mem_top_track_10.mem_out\[0\]
+ VGND VGND VPWR VPWR sky130_fd_sc_hd__diode_2
XFILLER_58_29 VGND VGND VPWR VPWR sky130_ef_sc_hd__decap_12
Xsb_0__1_.mux_top_track_6.mux_l1_in_3_ net247 net59 sb_0__1_.mem_top_track_6.mem_out\[0\]
+ VGND VGND VPWR VPWR sb_0__1_.mux_top_track_6.sky130_fd_sc_hd__mux2_1_3_X sky130_fd_sc_hd__mux2_1
X_130_ sb_0__1_.mux_right_track_14.out VGND VGND VPWR VPWR net122 sky130_fd_sc_hd__clkbuf_2
Xsb_0__1_.mem_right_track_54.sky130_fd_sc_hd__dfrtp_1_0_ clknet_4_5_0_prog_clk net282
+ net98 VGND VGND VPWR VPWR sb_0__1_.mem_right_track_54.mem_out\[0\] sky130_fd_sc_hd__dfrtp_1
XFILLER_65_118 VGND VGND VPWR VPWR sky130_fd_sc_hd__fill_2
XANTENNA_input48_A chany_bottom_in[23] VGND VGND VPWR VPWR sky130_fd_sc_hd__diode_2
Xsb_0__1_.mux_right_track_36.sky130_fd_sc_hd__buf_4_0_ sb_0__1_.mux_right_track_36.sky130_fd_sc_hd__mux2_1_3_X
+ VGND VGND VPWR VPWR sb_0__1_.mux_right_track_36.out sky130_fd_sc_hd__clkbuf_1
Xcby_0__1_.cby_0__1_.mux_right_ipin_1.mux_l3_in_0_ cby_0__1_.cby_0__1_.mux_right_ipin_1.sky130_fd_sc_hd__mux2_1_6_X
+ cby_0__1_.cby_0__1_.mux_right_ipin_1.sky130_fd_sc_hd__mux2_1_5_X cby_0__1_.cby_0__1_.mem_right_ipin_1.mem_out\[2\]
+ VGND VGND VPWR VPWR cby_0__1_.cby_0__1_.mux_right_ipin_1.sky130_fd_sc_hd__mux2_1_9_X
+ sky130_fd_sc_hd__mux2_1
XANTENNA_sb_0__1_.mem_top_track_44.sky130_fd_sc_hd__dfrtp_1_0__CLK clknet_4_10_0_prog_clk
+ VGND VGND VPWR VPWR sky130_fd_sc_hd__diode_2
XFILLER_64_94 VGND VGND VPWR VPWR sky130_fd_sc_hd__fill_2
XFILLER_80_82 VGND VGND VPWR VPWR sky130_fd_sc_hd__fill_2
XANTENNA_sb_0__1_.mem_right_track_16.sky130_fd_sc_hd__dfrtp_1_0__RESET_B net98 VGND
+ VGND VPWR VPWR sky130_fd_sc_hd__diode_2
XFILLER_43_3 VGND VGND VPWR VPWR sky130_ef_sc_hd__decap_12
XFILLER_69_39 VGND VGND VPWR VPWR sky130_ef_sc_hd__decap_12
XFILLER_20_265 VGND VGND VPWR VPWR sky130_fd_sc_hd__fill_1
XFILLER_85_27 VGND VGND VPWR VPWR sky130_ef_sc_hd__decap_12
Xsb_0__1_.mux_top_track_36.mux_l2_in_1__243 VGND VGND VPWR VPWR net243 sb_0__1_.mux_top_track_36.mux_l2_in_1__243/LO
+ sky130_fd_sc_hd__conb_1
XANTENNA_input102_A right_bottom_grid_top_width_0_height_0_subtile_0__pin_O_3_ VGND
+ VGND VPWR VPWR sky130_fd_sc_hd__diode_2
XFILLER_70_121 VGND VGND VPWR VPWR sky130_fd_sc_hd__decap_4
XFILLER_70_110 VGND VGND VPWR VPWR sky130_fd_sc_hd__fill_2
XFILLER_18_65 VGND VGND VPWR VPWR sky130_ef_sc_hd__decap_12
XFILLER_34_53 VGND VGND VPWR VPWR sky130_fd_sc_hd__decap_4
XFILLER_7_247 VGND VGND VPWR VPWR sky130_fd_sc_hd__fill_1
XFILLER_7_225 VGND VGND VPWR VPWR sky130_fd_sc_hd__fill_2
X_113_ sb_0__1_.mux_right_track_48.out VGND VGND VPWR VPWR net133 sky130_fd_sc_hd__clkbuf_2
XTAP_519 VGND VPWR sky130_fd_sc_hd__tapvpwrvgnd_1
XTAP_508 VGND VPWR sky130_fd_sc_hd__tapvpwrvgnd_1
XFILLER_50_85 VGND VGND VPWR VPWR sky130_fd_sc_hd__decap_8
XFILLER_50_52 VGND VGND VPWR VPWR sky130_ef_sc_hd__decap_12
XFILLER_93_235 VGND VGND VPWR VPWR sky130_fd_sc_hd__fill_2
Xsb_0__1_.mux_top_track_12.mux_l2_in_1_ net239 sb_0__1_.mux_top_track_12.sky130_fd_sc_hd__mux2_1_2_X
+ sb_0__1_.mem_top_track_12.mem_out\[1\] VGND VGND VPWR VPWR sb_0__1_.mux_top_track_12.sky130_fd_sc_hd__mux2_1_4_X
+ sky130_fd_sc_hd__mux2_1
XFILLER_46_151 VGND VGND VPWR VPWR sky130_fd_sc_hd__decap_4
XFILLER_61_154 VGND VGND VPWR VPWR sky130_fd_sc_hd__fill_2
XFILLER_61_143 VGND VGND VPWR VPWR sky130_fd_sc_hd__fill_2
XANTENNA_sb_0__1_.mux_top_track_0.mux_l1_in_1__S sb_0__1_.mem_top_track_0.mem_out\[0\]
+ VGND VGND VPWR VPWR sky130_fd_sc_hd__diode_2
XFILLER_69_221 VGND VGND VPWR VPWR sky130_fd_sc_hd__decap_3
XFILLER_37_195 VGND VGND VPWR VPWR sky130_fd_sc_hd__decap_4
XFILLER_71_29 VGND VGND VPWR VPWR sky130_fd_sc_hd__fill_2
Xcby_0__1_.cby_0__1_.mux_right_ipin_1.mux_l2_in_1_ cby_0__1_.cby_0__1_.mux_right_ipin_1.sky130_fd_sc_hd__mux2_1_3_X
+ cby_0__1_.cby_0__1_.mux_right_ipin_1.sky130_fd_sc_hd__mux2_1_2_X cby_0__1_.cby_0__1_.mem_right_ipin_1.mem_out\[1\]
+ VGND VGND VPWR VPWR cby_0__1_.cby_0__1_.mux_right_ipin_1.sky130_fd_sc_hd__mux2_1_6_X
+ sky130_fd_sc_hd__mux2_1
XFILLER_4_239 VGND VGND VPWR VPWR sky130_fd_sc_hd__fill_1
XFILLER_20_77 VGND VGND VPWR VPWR sky130_fd_sc_hd__decap_6
Xhold20 sb_0__1_.mem_right_track_12.ccff_tail VGND VGND VPWR VPWR net276 sky130_fd_sc_hd__clkdlybuf4s25_1
Xhold53 sb_0__1_.mem_right_track_2.ccff_tail VGND VGND VPWR VPWR net309 sky130_fd_sc_hd__clkdlybuf4s25_1
XANTENNA_sb_0__1_.mem_top_track_36.sky130_fd_sc_hd__dfrtp_1_1__CLK clknet_4_10_0_prog_clk
+ VGND VGND VPWR VPWR sky130_fd_sc_hd__diode_2
Xhold75 sb_0__1_.mem_top_track_10.ccff_tail VGND VGND VPWR VPWR net331 sky130_fd_sc_hd__clkdlybuf4s25_1
Xhold97 sb_0__1_.mem_right_track_24.mem_out\[0\] VGND VGND VPWR VPWR net353 sky130_fd_sc_hd__clkdlybuf4s25_1
Xhold42 sb_0__1_.mem_right_track_32.ccff_tail VGND VGND VPWR VPWR net298 sky130_fd_sc_hd__clkdlybuf4s25_1
Xhold31 sb_0__1_.mem_right_track_54.ccff_tail VGND VGND VPWR VPWR net287 sky130_fd_sc_hd__clkdlybuf4s25_1
Xhold86 sb_0__1_.mem_right_track_36.mem_out\[1\] VGND VGND VPWR VPWR net342 sky130_fd_sc_hd__clkdlybuf4s25_1