* NGSPICE file created from left_tile.ext - technology: sky130A

* Black-box entry subcircuit for sky130_fd_sc_hd__diode_2 abstract view
.subckt sky130_fd_sc_hd__diode_2 DIODE VGND VNB VPB VPWR
.ends

* Black-box entry subcircuit for sky130_fd_sc_hd__decap_4 abstract view
.subckt sky130_fd_sc_hd__decap_4 VGND VNB VPB VPWR
.ends

* Black-box entry subcircuit for sky130_fd_sc_hd__fill_2 abstract view
.subckt sky130_fd_sc_hd__fill_2 VGND VNB VPB VPWR
.ends

* Black-box entry subcircuit for sky130_fd_sc_hd__mux2_1 abstract view
.subckt sky130_fd_sc_hd__mux2_1 A0 A1 S VGND VNB VPB VPWR X
.ends

* Black-box entry subcircuit for sky130_fd_sc_hd__tapvpwrvgnd_1 abstract view
.subckt sky130_fd_sc_hd__tapvpwrvgnd_1 VGND VPWR
.ends

* Black-box entry subcircuit for sky130_ef_sc_hd__decap_12 abstract view
.subckt sky130_ef_sc_hd__decap_12 VGND VNB VPB VPWR
.ends

* Black-box entry subcircuit for sky130_fd_sc_hd__fill_1 abstract view
.subckt sky130_fd_sc_hd__fill_1 VGND VNB VPB VPWR
.ends

* Black-box entry subcircuit for sky130_fd_sc_hd__conb_1 abstract view
.subckt sky130_fd_sc_hd__conb_1 VGND VNB VPB VPWR HI LO
.ends

* Black-box entry subcircuit for sky130_fd_sc_hd__dfrtp_2 abstract view
.subckt sky130_fd_sc_hd__dfrtp_2 CLK D RESET_B VGND VNB VPB VPWR Q
.ends

* Black-box entry subcircuit for sky130_fd_sc_hd__clkbuf_1 abstract view
.subckt sky130_fd_sc_hd__clkbuf_1 A VGND VNB VPB VPWR X
.ends

* Black-box entry subcircuit for sky130_fd_sc_hd__dfrtp_1 abstract view
.subckt sky130_fd_sc_hd__dfrtp_1 CLK D RESET_B VGND VNB VPB VPWR Q
.ends

* Black-box entry subcircuit for sky130_fd_sc_hd__decap_8 abstract view
.subckt sky130_fd_sc_hd__decap_8 VGND VNB VPB VPWR
.ends

* Black-box entry subcircuit for sky130_fd_sc_hd__decap_6 abstract view
.subckt sky130_fd_sc_hd__decap_6 VGND VNB VPB VPWR
.ends

* Black-box entry subcircuit for sky130_fd_sc_hd__clkbuf_2 abstract view
.subckt sky130_fd_sc_hd__clkbuf_2 A VGND VNB VPB VPWR X
.ends

* Black-box entry subcircuit for sky130_fd_sc_hd__ebufn_8 abstract view
.subckt sky130_fd_sc_hd__ebufn_8 A TE_B VGND VNB VPB VPWR Z
.ends

* Black-box entry subcircuit for sky130_fd_sc_hd__decap_3 abstract view
.subckt sky130_fd_sc_hd__decap_3 VGND VNB VPB VPWR
.ends

* Black-box entry subcircuit for sky130_fd_sc_hd__clkdlybuf4s25_1 abstract view
.subckt sky130_fd_sc_hd__clkdlybuf4s25_1 A VGND VNB VPB VPWR X
.ends

* Black-box entry subcircuit for sky130_fd_sc_hd__dfrtp_4 abstract view
.subckt sky130_fd_sc_hd__dfrtp_4 CLK D RESET_B VGND VNB VPB VPWR Q
.ends

* Black-box entry subcircuit for sky130_fd_sc_hd__clkbuf_8 abstract view
.subckt sky130_fd_sc_hd__clkbuf_8 A VGND VNB VPB VPWR X
.ends

* Black-box entry subcircuit for sky130_fd_sc_hd__buf_12 abstract view
.subckt sky130_fd_sc_hd__buf_12 A VGND VNB VPB VPWR X
.ends

* Black-box entry subcircuit for sky130_fd_sc_hd__buf_2 abstract view
.subckt sky130_fd_sc_hd__buf_2 A VGND VNB VPB VPWR X
.ends

* Black-box entry subcircuit for sky130_fd_sc_hd__or2b_2 abstract view
.subckt sky130_fd_sc_hd__or2b_2 A B_N VGND VNB VPB VPWR X
.ends

* Black-box entry subcircuit for sky130_fd_sc_hd__dlymetal6s2s_1 abstract view
.subckt sky130_fd_sc_hd__dlymetal6s2s_1 A VGND VNB VPB VPWR X
.ends

* Black-box entry subcircuit for sky130_fd_sc_hd__inv_1 abstract view
.subckt sky130_fd_sc_hd__inv_1 A VGND VNB VPB VPWR Y
.ends

* Black-box entry subcircuit for sky130_fd_sc_hd__clkbuf_4 abstract view
.subckt sky130_fd_sc_hd__clkbuf_4 A VGND VNB VPB VPWR X
.ends

* Black-box entry subcircuit for sky130_fd_sc_hd__clkdlybuf4s50_1 abstract view
.subckt sky130_fd_sc_hd__clkdlybuf4s50_1 A VGND VNB VPB VPWR X
.ends

* Black-box entry subcircuit for sky130_fd_sc_hd__clkbuf_16 abstract view
.subckt sky130_fd_sc_hd__clkbuf_16 A VGND VNB VPB VPWR X
.ends

* Black-box entry subcircuit for sky130_fd_sc_hd__buf_6 abstract view
.subckt sky130_fd_sc_hd__buf_6 A VGND VNB VPB VPWR X
.ends

.subckt left_tile VGND VPWR ccff_head ccff_head_0 ccff_tail ccff_tail_0 chanx_right_in[0]
+ chanx_right_in[10] chanx_right_in[11] chanx_right_in[12] chanx_right_in[13] chanx_right_in[14]
+ chanx_right_in[15] chanx_right_in[16] chanx_right_in[17] chanx_right_in[18] chanx_right_in[19]
+ chanx_right_in[1] chanx_right_in[20] chanx_right_in[21] chanx_right_in[22] chanx_right_in[23]
+ chanx_right_in[24] chanx_right_in[25] chanx_right_in[26] chanx_right_in[27] chanx_right_in[28]
+ chanx_right_in[29] chanx_right_in[2] chanx_right_in[3] chanx_right_in[4] chanx_right_in[5]
+ chanx_right_in[6] chanx_right_in[7] chanx_right_in[8] chanx_right_in[9] chanx_right_out[0]
+ chanx_right_out[10] chanx_right_out[11] chanx_right_out[12] chanx_right_out[13]
+ chanx_right_out[14] chanx_right_out[15] chanx_right_out[16] chanx_right_out[17]
+ chanx_right_out[18] chanx_right_out[19] chanx_right_out[1] chanx_right_out[20] chanx_right_out[21]
+ chanx_right_out[22] chanx_right_out[23] chanx_right_out[24] chanx_right_out[25]
+ chanx_right_out[26] chanx_right_out[27] chanx_right_out[28] chanx_right_out[29]
+ chanx_right_out[2] chanx_right_out[3] chanx_right_out[4] chanx_right_out[5] chanx_right_out[6]
+ chanx_right_out[7] chanx_right_out[8] chanx_right_out[9] chany_bottom_in[0] chany_bottom_in[10]
+ chany_bottom_in[11] chany_bottom_in[12] chany_bottom_in[13] chany_bottom_in[14]
+ chany_bottom_in[15] chany_bottom_in[16] chany_bottom_in[17] chany_bottom_in[18]
+ chany_bottom_in[19] chany_bottom_in[1] chany_bottom_in[20] chany_bottom_in[21] chany_bottom_in[22]
+ chany_bottom_in[23] chany_bottom_in[24] chany_bottom_in[25] chany_bottom_in[26]
+ chany_bottom_in[27] chany_bottom_in[28] chany_bottom_in[29] chany_bottom_in[2] chany_bottom_in[3]
+ chany_bottom_in[4] chany_bottom_in[5] chany_bottom_in[6] chany_bottom_in[7] chany_bottom_in[8]
+ chany_bottom_in[9] chany_bottom_out[0] chany_bottom_out[10] chany_bottom_out[11]
+ chany_bottom_out[12] chany_bottom_out[13] chany_bottom_out[14] chany_bottom_out[15]
+ chany_bottom_out[16] chany_bottom_out[17] chany_bottom_out[18] chany_bottom_out[19]
+ chany_bottom_out[1] chany_bottom_out[20] chany_bottom_out[21] chany_bottom_out[22]
+ chany_bottom_out[23] chany_bottom_out[24] chany_bottom_out[25] chany_bottom_out[26]
+ chany_bottom_out[27] chany_bottom_out[28] chany_bottom_out[29] chany_bottom_out[2]
+ chany_bottom_out[3] chany_bottom_out[4] chany_bottom_out[5] chany_bottom_out[6]
+ chany_bottom_out[7] chany_bottom_out[8] chany_bottom_out[9] chany_top_in_0[0] chany_top_in_0[10]
+ chany_top_in_0[11] chany_top_in_0[12] chany_top_in_0[13] chany_top_in_0[14] chany_top_in_0[15]
+ chany_top_in_0[16] chany_top_in_0[17] chany_top_in_0[18] chany_top_in_0[19] chany_top_in_0[1]
+ chany_top_in_0[20] chany_top_in_0[21] chany_top_in_0[22] chany_top_in_0[23] chany_top_in_0[24]
+ chany_top_in_0[25] chany_top_in_0[26] chany_top_in_0[27] chany_top_in_0[28] chany_top_in_0[29]
+ chany_top_in_0[2] chany_top_in_0[3] chany_top_in_0[4] chany_top_in_0[5] chany_top_in_0[6]
+ chany_top_in_0[7] chany_top_in_0[8] chany_top_in_0[9] chany_top_out_0[0] chany_top_out_0[10]
+ chany_top_out_0[11] chany_top_out_0[12] chany_top_out_0[13] chany_top_out_0[14]
+ chany_top_out_0[15] chany_top_out_0[16] chany_top_out_0[17] chany_top_out_0[18]
+ chany_top_out_0[19] chany_top_out_0[1] chany_top_out_0[20] chany_top_out_0[21] chany_top_out_0[22]
+ chany_top_out_0[23] chany_top_out_0[24] chany_top_out_0[25] chany_top_out_0[26]
+ chany_top_out_0[27] chany_top_out_0[28] chany_top_out_0[29] chany_top_out_0[2] chany_top_out_0[3]
+ chany_top_out_0[4] chany_top_out_0[5] chany_top_out_0[6] chany_top_out_0[7] chany_top_out_0[8]
+ chany_top_out_0[9] gfpga_pad_io_soc_dir[0] gfpga_pad_io_soc_dir[1] gfpga_pad_io_soc_dir[2]
+ gfpga_pad_io_soc_dir[3] gfpga_pad_io_soc_in[0] gfpga_pad_io_soc_in[1] gfpga_pad_io_soc_in[2]
+ gfpga_pad_io_soc_in[3] gfpga_pad_io_soc_out[0] gfpga_pad_io_soc_out[1] gfpga_pad_io_soc_out[2]
+ gfpga_pad_io_soc_out[3] isol_n prog_clk prog_reset reset right_bottom_grid_top_width_0_height_0_subtile_0__pin_O_0_
+ right_bottom_grid_top_width_0_height_0_subtile_0__pin_O_1_ right_bottom_grid_top_width_0_height_0_subtile_0__pin_O_2_
+ right_bottom_grid_top_width_0_height_0_subtile_0__pin_O_3_ right_bottom_grid_top_width_0_height_0_subtile_0__pin_O_4_
+ right_bottom_grid_top_width_0_height_0_subtile_0__pin_O_5_ right_bottom_grid_top_width_0_height_0_subtile_0__pin_O_6_
+ right_bottom_grid_top_width_0_height_0_subtile_0__pin_O_7_ right_width_0_height_0_subtile_0__pin_inpad_0_
+ right_width_0_height_0_subtile_1__pin_inpad_0_ right_width_0_height_0_subtile_2__pin_inpad_0_
+ right_width_0_height_0_subtile_3__pin_inpad_0_ test_enable top_left_grid_right_width_0_height_0_subtile_0__pin_inpad_0_
+ top_left_grid_right_width_0_height_0_subtile_1__pin_inpad_0_ top_left_grid_right_width_0_height_0_subtile_2__pin_inpad_0_
+ top_left_grid_right_width_0_height_0_subtile_3__pin_inpad_0_
XANTENNA_sb_0__1_.mem_top_track_0.sky130_fd_sc_hd__dfrtp_1_1__RESET_B net212 VGND
+ VGND VPWR VPWR sky130_fd_sc_hd__diode_2
XFILLER_39_233 VGND VGND VPWR VPWR sky130_fd_sc_hd__decap_4
XFILLER_39_222 VGND VGND VPWR VPWR sky130_fd_sc_hd__fill_2
Xcby_0__1_.cby_0__1_.mux_right_ipin_1.mux_l1_in_4_ net65 net34 cby_0__1_.cby_0__1_.mem_right_ipin_1.mem_out\[0\]
+ VGND VGND VPWR VPWR cby_0__1_.cby_0__1_.mux_right_ipin_1.sky130_fd_sc_hd__mux2_1_4_X
+ sky130_fd_sc_hd__mux2_1
XTAP_199 VGND VPWR sky130_fd_sc_hd__tapvpwrvgnd_1
XFILLER_52_29 VGND VGND VPWR VPWR sky130_ef_sc_hd__decap_12
XFILLER_22_177 VGND VGND VPWR VPWR sky130_fd_sc_hd__decap_4
XFILLER_89_111 VGND VGND VPWR VPWR sky130_fd_sc_hd__fill_1
Xsb_0__1_.mux_top_track_44.mux_l1_in_1__259 VGND VGND VPWR VPWR net259 sb_0__1_.mux_top_track_44.mux_l1_in_1__259/LO
+ sky130_fd_sc_hd__conb_1
XFILLER_93_14 VGND VGND VPWR VPWR sky130_fd_sc_hd__decap_4
XFILLER_77_15 VGND VGND VPWR VPWR sky130_ef_sc_hd__decap_12
XANTENNA_sb_0__1_.mux_top_track_10.mux_l1_in_0__A1 top_left_grid_right_width_0_height_0_subtile_1__pin_inpad_0_
+ VGND VGND VPWR VPWR sky130_fd_sc_hd__diode_2
XANTENNA_sb_0__1_.mem_top_track_10.sky130_fd_sc_hd__dfrtp_1_1__RESET_B net209 VGND
+ VGND VPWR VPWR sky130_fd_sc_hd__diode_2
XFILLER_45_236 VGND VGND VPWR VPWR sky130_fd_sc_hd__decap_4
XFILLER_45_225 VGND VGND VPWR VPWR sky130_fd_sc_hd__fill_2
XFILLER_45_203 VGND VGND VPWR VPWR sky130_fd_sc_hd__decap_4
XFILLER_13_111 VGND VGND VPWR VPWR sky130_fd_sc_hd__fill_1
XFILLER_26_41 VGND VGND VPWR VPWR sky130_ef_sc_hd__decap_12
XFILLER_26_85 VGND VGND VPWR VPWR sky130_fd_sc_hd__fill_2
XFILLER_26_96 VGND VGND VPWR VPWR sky130_fd_sc_hd__decap_4
XANTENNA_input92_A chany_top_in_0[9] VGND VGND VPWR VPWR sky130_fd_sc_hd__diode_2
XFILLER_9_137 VGND VGND VPWR VPWR sky130_ef_sc_hd__decap_12
XANTENNA_cby_0__1_.cby_0__1_.mux_right_ipin_1.mux_l1_in_1__A1 net50 VGND VGND VPWR
+ VPWR sky130_fd_sc_hd__diode_2
XANTENNA_sb_0__1_.mux_right_track_16.mux_l2_in_1__A1 net38 VGND VGND VPWR VPWR sky130_fd_sc_hd__diode_2
XFILLER_3_34 VGND VGND VPWR VPWR sky130_fd_sc_hd__fill_1
XFILLER_95_169 VGND VGND VPWR VPWR sky130_fd_sc_hd__fill_2
XFILLER_95_147 VGND VGND VPWR VPWR sky130_fd_sc_hd__fill_2
XFILLER_83_91 VGND VGND VPWR VPWR sky130_ef_sc_hd__decap_12
Xcby_0__1_.cby_0__1_.mux_right_ipin_1.mux_l4_in_0_ cby_0__1_.cby_0__1_.mux_right_ipin_1.sky130_fd_sc_hd__mux2_1_10_X
+ cby_0__1_.cby_0__1_.mux_right_ipin_1.sky130_fd_sc_hd__mux2_1_9_X cby_0__1_.cby_0__1_.mem_right_ipin_1.ccff_tail
+ VGND VGND VPWR VPWR cby_0__1_.cby_0__1_.mux_right_ipin_1.sky130_fd_sc_hd__mux2_1_11_X
+ sky130_fd_sc_hd__mux2_1
Xcby_0__1_.cby_0__1_.mem_right_ipin_2.sky130_fd_sc_hd__dfrtp_1_1_ clknet_4_1_0_prog_clk
+ cby_0__1_.cby_0__1_.mem_right_ipin_2.mem_out\[0\] net202 VGND VGND VPWR VPWR cby_0__1_.cby_0__1_.mem_right_ipin_2.mem_out\[1\]
+ sky130_fd_sc_hd__dfrtp_2
XFILLER_94_180 VGND VGND VPWR VPWR sky130_fd_sc_hd__decap_4
XANTENNA_sb_0__1_.mux_bottom_track_45.mux_l1_in_0__A1 net67 VGND VGND VPWR VPWR sky130_fd_sc_hd__diode_2
XFILLER_63_39 VGND VGND VPWR VPWR sky130_ef_sc_hd__decap_12
XFILLER_27_203 VGND VGND VPWR VPWR sky130_fd_sc_hd__decap_4
XFILLER_27_225 VGND VGND VPWR VPWR sky130_fd_sc_hd__fill_2
XFILLER_27_247 VGND VGND VPWR VPWR sky130_fd_sc_hd__fill_1
Xsb_0__1_.mux_right_track_14.sky130_fd_sc_hd__buf_4_0_ sb_0__1_.mux_right_track_14.sky130_fd_sc_hd__mux2_1_3_X
+ VGND VGND VPWR VPWR sb_0__1_.mux_right_track_14.out sky130_fd_sc_hd__clkbuf_1
Xsb_0__1_.mem_right_track_22.sky130_fd_sc_hd__dfrtp_1_2_ clknet_4_9_0_prog_clk sb_0__1_.mem_right_track_22.mem_out\[1\]
+ net209 VGND VGND VPWR VPWR sb_0__1_.mem_right_track_22.ccff_tail sky130_fd_sc_hd__dfrtp_1
XFILLER_50_250 VGND VGND VPWR VPWR sky130_fd_sc_hd__fill_2
XANTENNA_sb_0__1_.mux_right_track_34.mux_l1_in_0__A0 net102 VGND VGND VPWR VPWR sky130_fd_sc_hd__diode_2
XFILLER_12_65 VGND VGND VPWR VPWR sky130_fd_sc_hd__decap_8
XFILLER_12_76 VGND VGND VPWR VPWR sky130_fd_sc_hd__decap_8
XFILLER_92_128 VGND VGND VPWR VPWR sky130_fd_sc_hd__decap_4
XFILLER_77_169 VGND VGND VPWR VPWR sky130_fd_sc_hd__fill_2
XFILLER_18_203 VGND VGND VPWR VPWR sky130_fd_sc_hd__fill_1
XFILLER_53_50 VGND VGND VPWR VPWR sky130_fd_sc_hd__decap_6
XFILLER_37_95 VGND VGND VPWR VPWR sky130_fd_sc_hd__decap_6
XFILLER_78_91 VGND VGND VPWR VPWR sky130_fd_sc_hd__fill_2
XFILLER_68_114 VGND VGND VPWR VPWR sky130_fd_sc_hd__fill_2
XFILLER_68_103 VGND VGND VPWR VPWR sky130_fd_sc_hd__fill_2
XANTENNA_sb_0__1_.mux_bottom_track_11.mux_l1_in_0__A0 net88 VGND VGND VPWR VPWR sky130_fd_sc_hd__diode_2
XFILLER_24_228 VGND VGND VPWR VPWR sky130_fd_sc_hd__fill_2
XFILLER_32_250 VGND VGND VPWR VPWR sky130_fd_sc_hd__fill_2
XFILLER_74_128 VGND VGND VPWR VPWR sky130_fd_sc_hd__decap_4
XFILLER_74_27 VGND VGND VPWR VPWR sky130_fd_sc_hd__fill_1
XFILLER_59_169 VGND VGND VPWR VPWR sky130_fd_sc_hd__decap_6
XFILLER_90_26 VGND VGND VPWR VPWR sky130_fd_sc_hd__fill_2
XFILLER_82_194 VGND VGND VPWR VPWR sky130_fd_sc_hd__fill_2
X_200_ cby_0__1_.grid_io_left_left_0__1_.logical_tile_io_mode_io__1.gfpga_pad_io_soc_dir
+ VGND VGND VPWR VPWR net200 sky130_fd_sc_hd__clkbuf_1
XFILLER_15_206 VGND VGND VPWR VPWR sky130_fd_sc_hd__decap_4
Xsb_0__1_.mem_right_track_54.sky130_fd_sc_hd__dfrtp_1_1_ clknet_4_4_0_prog_clk net288
+ net203 VGND VGND VPWR VPWR sb_0__1_.mem_right_track_54.ccff_tail sky130_fd_sc_hd__dfrtp_1
Xsb_0__1_.mux_right_track_8.mux_l1_in_0_ net73 net80 sb_0__1_.mem_right_track_8.mem_out\[0\]
+ VGND VGND VPWR VPWR sb_0__1_.mux_right_track_8.sky130_fd_sc_hd__mux2_1_0_X sky130_fd_sc_hd__mux2_1
X_131_ sb_0__1_.mux_right_track_12.out VGND VGND VPWR VPWR net123 sky130_fd_sc_hd__clkbuf_2
XANTENNA_sb_0__1_.mux_right_track_26.mux_l1_in_0__A1 net90 VGND VGND VPWR VPWR sky130_fd_sc_hd__diode_2
XFILLER_48_61 VGND VGND VPWR VPWR sky130_fd_sc_hd__fill_1
XANTENNA_input55_A chany_bottom_in[2] VGND VGND VPWR VPWR sky130_fd_sc_hd__diode_2
XFILLER_2_187 VGND VGND VPWR VPWR sky130_fd_sc_hd__decap_8
XFILLER_2_121 VGND VGND VPWR VPWR sky130_fd_sc_hd__fill_1
Xcby_0__1_.cby_0__1_.mux_right_ipin_1.mux_l3_in_1_ cby_0__1_.cby_0__1_.mux_right_ipin_1.sky130_fd_sc_hd__mux2_1_8_X
+ cby_0__1_.cby_0__1_.mux_right_ipin_1.sky130_fd_sc_hd__mux2_1_7_X cby_0__1_.cby_0__1_.mem_right_ipin_1.mem_out\[2\]
+ VGND VGND VPWR VPWR cby_0__1_.cby_0__1_.mux_right_ipin_1.sky130_fd_sc_hd__mux2_1_10_X
+ sky130_fd_sc_hd__mux2_1
XFILLER_73_183 VGND VGND VPWR VPWR sky130_fd_sc_hd__fill_2
XFILLER_73_172 VGND VGND VPWR VPWR sky130_fd_sc_hd__fill_2
XFILLER_73_150 VGND VGND VPWR VPWR sky130_fd_sc_hd__fill_2
XFILLER_0_13 VGND VGND VPWR VPWR sky130_fd_sc_hd__decap_4
XFILLER_0_35 VGND VGND VPWR VPWR sky130_fd_sc_hd__decap_4
Xsb_0__1_.mux_bottom_track_11.mux_l1_in_0_ net88 net73 sb_0__1_.mem_bottom_track_11.mem_out\[0\]
+ VGND VGND VPWR VPWR sb_0__1_.mux_bottom_track_11.sky130_fd_sc_hd__mux2_1_0_X sky130_fd_sc_hd__mux2_1
XFILLER_9_55 VGND VGND VPWR VPWR sky130_fd_sc_hd__fill_1
XFILLER_14_250 VGND VGND VPWR VPWR sky130_fd_sc_hd__fill_2
XFILLER_88_209 VGND VGND VPWR VPWR sky130_ef_sc_hd__decap_12
XFILLER_50_3 VGND VGND VPWR VPWR sky130_ef_sc_hd__decap_12
XFILLER_56_139 VGND VGND VPWR VPWR sky130_fd_sc_hd__fill_1
Xcby_0__1_.grid_io_left_left_0__1_.logical_tile_io_mode_io__0.logical_tile_io_mode_physical__iopad_0.io_0_.OUT_PROTECT_GATE
+ cby_0__1_.cby_0__1_.left_grid_right_width_0_height_0_subtile_0__pin_outpad_0_ cby_0__1_.grid_io_left_left_0__1_.logical_tile_io_mode_io__0.gfpga_pad_io_soc_dir
+ VGND VGND VPWR VPWR gfpga_pad_io_soc_out[3] sky130_fd_sc_hd__ebufn_8
XFILLER_64_183 VGND VGND VPWR VPWR sky130_fd_sc_hd__fill_1
XFILLER_64_172 VGND VGND VPWR VPWR sky130_fd_sc_hd__decap_4
XFILLER_64_161 VGND VGND VPWR VPWR sky130_fd_sc_hd__fill_2
XFILLER_60_29 VGND VGND VPWR VPWR sky130_ef_sc_hd__decap_12
XFILLER_20_253 VGND VGND VPWR VPWR sky130_ef_sc_hd__decap_12
XFILLER_87_253 VGND VGND VPWR VPWR sky130_fd_sc_hd__fill_1
XFILLER_85_15 VGND VGND VPWR VPWR sky130_ef_sc_hd__decap_12
XFILLER_69_27 VGND VGND VPWR VPWR sky130_ef_sc_hd__decap_12
XFILLER_87_264 VGND VGND VPWR VPWR sky130_fd_sc_hd__fill_2
XFILLER_55_150 VGND VGND VPWR VPWR sky130_fd_sc_hd__decap_4
XFILLER_47_106 VGND VGND VPWR VPWR sky130_fd_sc_hd__decap_6
XFILLER_18_53 VGND VGND VPWR VPWR sky130_ef_sc_hd__decap_12
XFILLER_70_197 VGND VGND VPWR VPWR sky130_fd_sc_hd__decap_8
XFILLER_34_41 VGND VGND VPWR VPWR sky130_fd_sc_hd__decap_4
XFILLER_7_202 VGND VGND VPWR VPWR sky130_fd_sc_hd__decap_4
XFILLER_11_264 VGND VGND VPWR VPWR sky130_fd_sc_hd__fill_2
XTAP_507 VGND VPWR sky130_fd_sc_hd__tapvpwrvgnd_1
XFILLER_50_73 VGND VGND VPWR VPWR sky130_fd_sc_hd__fill_2
X_114_ sb_0__1_.mux_right_track_46.out VGND VGND VPWR VPWR net134 sky130_fd_sc_hd__clkbuf_1
XFILLER_93_212 VGND VGND VPWR VPWR sky130_fd_sc_hd__fill_2
XFILLER_78_253 VGND VGND VPWR VPWR sky130_fd_sc_hd__fill_2
XTAP_529 VGND VPWR sky130_fd_sc_hd__tapvpwrvgnd_1
XTAP_518 VGND VPWR sky130_fd_sc_hd__tapvpwrvgnd_1
XFILLER_38_128 VGND VGND VPWR VPWR sky130_fd_sc_hd__fill_2
XFILLER_46_194 VGND VGND VPWR VPWR sky130_fd_sc_hd__fill_2
XANTENNA_sb_0__1_.mem_bottom_track_3.sky130_fd_sc_hd__dfrtp_1_0__RESET_B net206 VGND
+ VGND VPWR VPWR sky130_fd_sc_hd__diode_2
Xsb_0__1_.mux_right_track_14.mux_l3_in_0_ sb_0__1_.mux_right_track_14.sky130_fd_sc_hd__mux2_1_2_X
+ sb_0__1_.mux_right_track_14.sky130_fd_sc_hd__mux2_1_1_X sb_0__1_.mem_right_track_14.ccff_tail
+ VGND VGND VPWR VPWR sb_0__1_.mux_right_track_14.sky130_fd_sc_hd__mux2_1_3_X sky130_fd_sc_hd__mux2_1
XFILLER_69_264 VGND VGND VPWR VPWR sky130_fd_sc_hd__fill_2
Xsb_0__1_.mux_right_track_56.mux_l1_in_0_ net54 net105 sb_0__1_.mem_right_track_56.mem_out\[0\]
+ VGND VGND VPWR VPWR sb_0__1_.mux_right_track_56.sky130_fd_sc_hd__mux2_1_0_X sky130_fd_sc_hd__mux2_1
XFILLER_52_197 VGND VGND VPWR VPWR sky130_fd_sc_hd__decap_3
XFILLER_52_120 VGND VGND VPWR VPWR sky130_fd_sc_hd__decap_4
Xcby_0__1_.cby_0__1_.mux_right_ipin_1.mux_l2_in_2_ net57 cby_0__1_.cby_0__1_.mux_right_ipin_1.sky130_fd_sc_hd__mux2_1_4_X
+ cby_0__1_.cby_0__1_.mem_right_ipin_1.mem_out\[1\] VGND VGND VPWR VPWR cby_0__1_.cby_0__1_.mux_right_ipin_1.sky130_fd_sc_hd__mux2_1_7_X
+ sky130_fd_sc_hd__mux2_1
XFILLER_20_65 VGND VGND VPWR VPWR sky130_ef_sc_hd__decap_12
Xhold30 sb_0__1_.mem_right_track_16.ccff_tail VGND VGND VPWR VPWR net300 sky130_fd_sc_hd__clkdlybuf4s25_1
Xhold63 sb_0__1_.mem_top_track_2.ccff_tail VGND VGND VPWR VPWR net333 sky130_fd_sc_hd__clkdlybuf4s25_1
Xhold41 sb_0__1_.mem_right_track_0.ccff_tail VGND VGND VPWR VPWR net311 sky130_fd_sc_hd__clkdlybuf4s25_1
Xhold52 sb_0__1_.mem_right_track_52.ccff_tail VGND VGND VPWR VPWR net322 sky130_fd_sc_hd__clkdlybuf4s25_1
Xhold74 cby_0__1_.grid_io_left_left_0__1_.logical_tile_io_mode_io__2.ccff_tail VGND
+ VGND VPWR VPWR net344 sky130_fd_sc_hd__clkdlybuf4s25_1
XFILLER_90_259 VGND VGND VPWR VPWR sky130_fd_sc_hd__fill_1
XANTENNA_input18_A chanx_right_in[23] VGND VGND VPWR VPWR sky130_fd_sc_hd__diode_2
Xhold85 sb_0__1_.mem_bottom_track_37.mem_out\[1\] VGND VGND VPWR VPWR net355 sky130_fd_sc_hd__clkdlybuf4s25_1
XFILLER_43_142 VGND VGND VPWR VPWR sky130_fd_sc_hd__decap_3
Xhold96 cby_0__1_.cby_0__1_.mem_right_ipin_1.mem_out\[1\] VGND VGND VPWR VPWR net366
+ sky130_fd_sc_hd__clkdlybuf4s25_1
XFILLER_28_194 VGND VGND VPWR VPWR sky130_fd_sc_hd__fill_2
XTAP_348 VGND VPWR sky130_fd_sc_hd__tapvpwrvgnd_1
XTAP_304 VGND VPWR sky130_fd_sc_hd__tapvpwrvgnd_1
XTAP_315 VGND VPWR sky130_fd_sc_hd__tapvpwrvgnd_1
XTAP_326 VGND VPWR sky130_fd_sc_hd__tapvpwrvgnd_1
XTAP_337 VGND VPWR sky130_fd_sc_hd__tapvpwrvgnd_1
XFILLER_81_215 VGND VGND VPWR VPWR sky130_fd_sc_hd__decap_8
XFILLER_66_234 VGND VGND VPWR VPWR sky130_fd_sc_hd__decap_4
XFILLER_66_212 VGND VGND VPWR VPWR sky130_fd_sc_hd__fill_2
XTAP_359 VGND VPWR sky130_fd_sc_hd__tapvpwrvgnd_1
Xsb_0__1_.mux_bottom_track_45.sky130_fd_sc_hd__buf_4_0_ sb_0__1_.mux_bottom_track_45.sky130_fd_sc_hd__mux2_1_3_X
+ VGND VGND VPWR VPWR sb_0__1_.mux_bottom_track_45.out sky130_fd_sc_hd__clkbuf_1
XFILLER_13_3 VGND VGND VPWR VPWR sky130_ef_sc_hd__decap_12
XFILLER_26_109 VGND VGND VPWR VPWR sky130_fd_sc_hd__decap_4
XFILLER_34_197 VGND VGND VPWR VPWR sky130_fd_sc_hd__fill_2
XFILLER_34_175 VGND VGND VPWR VPWR sky130_fd_sc_hd__decap_4
XANTENNA_fanout205_A net208 VGND VGND VPWR VPWR sky130_fd_sc_hd__diode_2
XFILLER_1_219 VGND VGND VPWR VPWR sky130_fd_sc_hd__decap_3
XFILLER_82_27 VGND VGND VPWR VPWR sky130_fd_sc_hd__fill_1
XANTENNA_sb_0__1_.mux_right_track_8.mux_l1_in_2__A0 net43 VGND VGND VPWR VPWR sky130_fd_sc_hd__diode_2
XFILLER_25_197 VGND VGND VPWR VPWR sky130_fd_sc_hd__decap_4
Xsb_0__1_.mem_top_track_10.sky130_fd_sc_hd__dfrtp_1_1_ clknet_4_8_0_prog_clk sb_0__1_.mem_top_track_10.mem_out\[0\]
+ net209 VGND VGND VPWR VPWR sb_0__1_.mem_top_track_10.mem_out\[1\] sky130_fd_sc_hd__dfrtp_1
XFILLER_48_223 VGND VGND VPWR VPWR sky130_fd_sc_hd__decap_6
XFILLER_0_263 VGND VGND VPWR VPWR sky130_fd_sc_hd__decap_3
XPHY_170 VGND VGND VPWR VPWR sky130_fd_sc_hd__decap_3
XFILLER_31_167 VGND VGND VPWR VPWR sky130_fd_sc_hd__fill_1
XFILLER_16_197 VGND VGND VPWR VPWR sky130_fd_sc_hd__fill_2
XPHY_181 VGND VGND VPWR VPWR sky130_fd_sc_hd__decap_3
Xsb_0__1_.mux_right_track_14.mux_l2_in_1_ net226 net39 sb_0__1_.mem_right_track_14.mem_out\[1\]
+ VGND VGND VPWR VPWR sb_0__1_.mux_right_track_14.sky130_fd_sc_hd__mux2_1_2_X sky130_fd_sc_hd__mux2_1
XFILLER_31_189 VGND VGND VPWR VPWR sky130_fd_sc_hd__decap_6
XANTENNA_sb_0__1_.mux_bottom_track_53.mux_l1_in_0__A1 net65 VGND VGND VPWR VPWR sky130_fd_sc_hd__diode_2
Xcby_0__1_.cby_0__1_.mux_right_ipin_1.mux_l1_in_3_ net71 net40 cby_0__1_.cby_0__1_.mem_right_ipin_1.mem_out\[0\]
+ VGND VGND VPWR VPWR cby_0__1_.cby_0__1_.mux_right_ipin_1.sky130_fd_sc_hd__mux2_1_3_X
+ sky130_fd_sc_hd__mux2_1
XANTENNA_sb_0__1_.mem_right_track_24.sky130_fd_sc_hd__dfrtp_1_1__RESET_B net204 VGND
+ VGND VPWR VPWR sky130_fd_sc_hd__diode_2
XFILLER_22_189 VGND VGND VPWR VPWR sky130_fd_sc_hd__decap_4
XFILLER_77_27 VGND VGND VPWR VPWR sky130_ef_sc_hd__decap_12
XFILLER_89_167 VGND VGND VPWR VPWR sky130_fd_sc_hd__fill_1
XFILLER_45_248 VGND VGND VPWR VPWR sky130_fd_sc_hd__decap_4
XFILLER_9_105 VGND VGND VPWR VPWR sky130_fd_sc_hd__decap_6
XFILLER_13_167 VGND VGND VPWR VPWR sky130_fd_sc_hd__fill_1
XFILLER_26_53 VGND VGND VPWR VPWR sky130_fd_sc_hd__fill_2
XFILLER_26_75 VGND VGND VPWR VPWR sky130_fd_sc_hd__fill_2
XANTENNA_input85_A chany_top_in_0[2] VGND VGND VPWR VPWR sky130_fd_sc_hd__diode_2
XFILLER_42_96 VGND VGND VPWR VPWR sky130_fd_sc_hd__fill_2
XFILLER_42_85 VGND VGND VPWR VPWR sky130_fd_sc_hd__fill_2
XFILLER_9_149 VGND VGND VPWR VPWR sky130_ef_sc_hd__decap_12
XFILLER_3_13 VGND VGND VPWR VPWR sky130_fd_sc_hd__decap_4
XFILLER_51_218 VGND VGND VPWR VPWR sky130_fd_sc_hd__decap_6
XFILLER_36_248 VGND VGND VPWR VPWR sky130_fd_sc_hd__fill_2
XFILLER_36_215 VGND VGND VPWR VPWR sky130_fd_sc_hd__decap_4
XFILLER_83_81 VGND VGND VPWR VPWR sky130_fd_sc_hd__decap_6
XFILLER_80_3 VGND VGND VPWR VPWR sky130_ef_sc_hd__decap_12
Xcby_0__1_.cby_0__1_.mem_right_ipin_2.sky130_fd_sc_hd__dfrtp_1_0_ clknet_4_0_0_prog_clk
+ net316 net202 VGND VGND VPWR VPWR cby_0__1_.cby_0__1_.mem_right_ipin_2.mem_out\[0\]
+ sky130_fd_sc_hd__dfrtp_4
Xsb_0__1_.mem_right_track_22.sky130_fd_sc_hd__dfrtp_1_1_ clknet_4_9_0_prog_clk net345
+ net209 VGND VGND VPWR VPWR sb_0__1_.mem_right_track_22.mem_out\[1\] sky130_fd_sc_hd__dfrtp_1
XFILLER_50_262 VGND VGND VPWR VPWR sky130_fd_sc_hd__fill_2
XANTENNA_sb_0__1_.mux_right_track_34.mux_l1_in_0__A1 net85 VGND VGND VPWR VPWR sky130_fd_sc_hd__diode_2
XFILLER_88_59 VGND VGND VPWR VPWR sky130_fd_sc_hd__fill_1
XFILLER_88_26 VGND VGND VPWR VPWR sky130_fd_sc_hd__fill_2
XFILLER_77_126 VGND VGND VPWR VPWR sky130_fd_sc_hd__decap_4
XFILLER_77_115 VGND VGND VPWR VPWR sky130_fd_sc_hd__fill_2
XFILLER_5_5 VGND VGND VPWR VPWR sky130_fd_sc_hd__fill_2
XFILLER_85_181 VGND VGND VPWR VPWR sky130_ef_sc_hd__decap_12
Xsb_0__1_.mux_right_track_22.mux_l2_in_1__231 VGND VGND VPWR VPWR net231 sb_0__1_.mux_right_track_22.mux_l2_in_1__231/LO
+ sky130_fd_sc_hd__conb_1
Xclkbuf_4_6_0_prog_clk clknet_0_prog_clk VGND VGND VPWR VPWR clknet_4_6_0_prog_clk
+ sky130_fd_sc_hd__clkbuf_8
XFILLER_83_118 VGND VGND VPWR VPWR sky130_ef_sc_hd__decap_12
XANTENNA_sb_0__1_.mux_bottom_track_11.mux_l1_in_0__A1 net73 VGND VGND VPWR VPWR sky130_fd_sc_hd__diode_2
XANTENNA__140__A net86 VGND VGND VPWR VPWR sky130_fd_sc_hd__diode_2
Xsb_0__1_.mux_top_track_12.mux_l3_in_0_ sb_0__1_.mux_top_track_12.sky130_fd_sc_hd__mux2_1_4_X
+ sb_0__1_.mux_top_track_12.sky130_fd_sc_hd__mux2_1_3_X sb_0__1_.mem_top_track_12.ccff_tail
+ VGND VGND VPWR VPWR sb_0__1_.mux_top_track_12.sky130_fd_sc_hd__mux2_1_5_X sky130_fd_sc_hd__mux2_1
XANTENNA_sb_0__1_.mem_top_track_4.sky130_fd_sc_hd__dfrtp_1_2__RESET_B net212 VGND
+ VGND VPWR VPWR sky130_fd_sc_hd__diode_2
XANTENNA_sb_0__1_.mux_top_track_10.mux_l1_in_0__S sb_0__1_.mem_top_track_10.mem_out\[0\]
+ VGND VGND VPWR VPWR sky130_fd_sc_hd__diode_2
XFILLER_59_104 VGND VGND VPWR VPWR sky130_fd_sc_hd__fill_2
XFILLER_58_29 VGND VGND VPWR VPWR sky130_ef_sc_hd__decap_12
XFILLER_59_148 VGND VGND VPWR VPWR sky130_ef_sc_hd__decap_12
Xsb_0__1_.mux_top_track_6.mux_l1_in_3_ net261 net59 sb_0__1_.mem_top_track_6.mem_out\[0\]
+ VGND VGND VPWR VPWR sb_0__1_.mux_top_track_6.sky130_fd_sc_hd__mux2_1_3_X sky130_fd_sc_hd__mux2_1
X_130_ sb_0__1_.mux_right_track_14.out VGND VGND VPWR VPWR net122 sky130_fd_sc_hd__clkbuf_2
Xsb_0__1_.mem_right_track_54.sky130_fd_sc_hd__dfrtp_1_0_ clknet_4_5_0_prog_clk net322
+ net203 VGND VGND VPWR VPWR sb_0__1_.mem_right_track_54.mem_out\[0\] sky130_fd_sc_hd__dfrtp_1
XFILLER_48_95 VGND VGND VPWR VPWR sky130_ef_sc_hd__decap_12
Xsb_0__1_.mux_bottom_track_7.mux_l1_in_3__222 VGND VGND VPWR VPWR net222 sb_0__1_.mux_bottom_track_7.mux_l1_in_3__222/LO
+ sky130_fd_sc_hd__conb_1
XANTENNA_input48_A chany_bottom_in[23] VGND VGND VPWR VPWR sky130_fd_sc_hd__diode_2
Xsb_0__1_.mux_right_track_36.sky130_fd_sc_hd__buf_4_0_ sb_0__1_.mux_right_track_36.sky130_fd_sc_hd__mux2_1_3_X
+ VGND VGND VPWR VPWR sb_0__1_.mux_right_track_36.out sky130_fd_sc_hd__clkbuf_1
Xcby_0__1_.cby_0__1_.mux_right_ipin_1.mux_l3_in_0_ cby_0__1_.cby_0__1_.mux_right_ipin_1.sky130_fd_sc_hd__mux2_1_6_X
+ cby_0__1_.cby_0__1_.mux_right_ipin_1.sky130_fd_sc_hd__mux2_1_5_X cby_0__1_.cby_0__1_.mem_right_ipin_1.mem_out\[2\]
+ VGND VGND VPWR VPWR cby_0__1_.cby_0__1_.mux_right_ipin_1.sky130_fd_sc_hd__mux2_1_9_X
+ sky130_fd_sc_hd__mux2_1
XFILLER_0_25 VGND VGND VPWR VPWR sky130_fd_sc_hd__decap_3
XFILLER_80_71 VGND VGND VPWR VPWR sky130_fd_sc_hd__fill_1
XFILLER_43_3 VGND VGND VPWR VPWR sky130_ef_sc_hd__decap_12
XFILLER_56_107 VGND VGND VPWR VPWR sky130_ef_sc_hd__decap_12
XFILLER_20_210 VGND VGND VPWR VPWR sky130_fd_sc_hd__fill_2
XFILLER_20_232 VGND VGND VPWR VPWR sky130_fd_sc_hd__fill_2
XFILLER_69_39 VGND VGND VPWR VPWR sky130_ef_sc_hd__decap_12
XFILLER_20_265 VGND VGND VPWR VPWR sky130_fd_sc_hd__fill_1
XFILLER_85_27 VGND VGND VPWR VPWR sky130_ef_sc_hd__decap_12
XANTENNA_input102_A right_bottom_grid_top_width_0_height_0_subtile_0__pin_O_3_ VGND
+ VGND VPWR VPWR sky130_fd_sc_hd__diode_2
XFILLER_70_110 VGND VGND VPWR VPWR sky130_fd_sc_hd__decap_4
XFILLER_55_162 VGND VGND VPWR VPWR sky130_fd_sc_hd__decap_6
XFILLER_18_65 VGND VGND VPWR VPWR sky130_ef_sc_hd__decap_12
XFILLER_7_225 VGND VGND VPWR VPWR sky130_fd_sc_hd__decap_3
X_113_ sb_0__1_.mux_right_track_48.out VGND VGND VPWR VPWR net133 sky130_fd_sc_hd__clkbuf_1
XFILLER_11_221 VGND VGND VPWR VPWR sky130_fd_sc_hd__fill_1
XTAP_519 VGND VPWR sky130_fd_sc_hd__tapvpwrvgnd_1
XTAP_508 VGND VPWR sky130_fd_sc_hd__tapvpwrvgnd_1
XFILLER_50_85 VGND VGND VPWR VPWR sky130_fd_sc_hd__decap_8
XFILLER_93_235 VGND VGND VPWR VPWR sky130_fd_sc_hd__fill_2
Xsb_0__1_.mux_top_track_12.mux_l2_in_1_ net253 sb_0__1_.mux_top_track_12.sky130_fd_sc_hd__mux2_1_2_X
+ sb_0__1_.mem_top_track_12.mem_out\[1\] VGND VGND VPWR VPWR sb_0__1_.mux_top_track_12.sky130_fd_sc_hd__mux2_1_4_X
+ sky130_fd_sc_hd__mux2_1
XANTENNA_sb_0__1_.mux_top_track_0.mux_l1_in_1__S sb_0__1_.mem_top_track_0.mem_out\[0\]
+ VGND VGND VPWR VPWR sky130_fd_sc_hd__diode_2
XFILLER_69_210 VGND VGND VPWR VPWR sky130_fd_sc_hd__decap_8
XFILLER_29_107 VGND VGND VPWR VPWR sky130_fd_sc_hd__fill_2
Xcby_0__1_.cby_0__1_.mux_right_ipin_1.mux_l2_in_1_ cby_0__1_.cby_0__1_.mux_right_ipin_1.sky130_fd_sc_hd__mux2_1_3_X
+ cby_0__1_.cby_0__1_.mux_right_ipin_1.sky130_fd_sc_hd__mux2_1_2_X cby_0__1_.cby_0__1_.mem_right_ipin_1.mem_out\[1\]
+ VGND VGND VPWR VPWR cby_0__1_.cby_0__1_.mux_right_ipin_1.sky130_fd_sc_hd__mux2_1_6_X
+ sky130_fd_sc_hd__mux2_1
XFILLER_4_239 VGND VGND VPWR VPWR sky130_fd_sc_hd__fill_1
XFILLER_20_77 VGND VGND VPWR VPWR sky130_fd_sc_hd__decap_6
Xhold64 sb_0__1_.mem_top_track_4.ccff_tail VGND VGND VPWR VPWR net334 sky130_fd_sc_hd__clkdlybuf4s25_1
Xhold75 sb_0__1_.mem_right_track_22.mem_out\[0\] VGND VGND VPWR VPWR net345 sky130_fd_sc_hd__clkdlybuf4s25_1
Xhold20 sb_0__1_.mem_bottom_track_37.ccff_tail VGND VGND VPWR VPWR net290 sky130_fd_sc_hd__clkdlybuf4s25_1
Xhold53 cby_0__1_.cby_0__1_.ccff_tail VGND VGND VPWR VPWR net323 sky130_fd_sc_hd__clkdlybuf4s25_1
Xhold31 sb_0__1_.mem_right_track_40.ccff_tail VGND VGND VPWR VPWR net301 sky130_fd_sc_hd__clkdlybuf4s25_1
Xhold42 sb_0__1_.mem_right_track_44.mem_out\[0\] VGND VGND VPWR VPWR net312 sky130_fd_sc_hd__clkdlybuf4s25_1
Xhold97 cby_0__1_.cby_0__1_.mem_right_ipin_2.mem_out\[1\] VGND VGND VPWR VPWR net367
+ sky130_fd_sc_hd__clkdlybuf4s25_1