* NGSPICE file created from right_tile.ext - technology: sky130A

* Black-box entry subcircuit for sky130_fd_sc_hd__tapvpwrvgnd_1 abstract view
.subckt sky130_fd_sc_hd__tapvpwrvgnd_1 VGND VPWR
.ends

* Black-box entry subcircuit for sky130_fd_sc_hd__dfrtp_1 abstract view
.subckt sky130_fd_sc_hd__dfrtp_1 CLK D RESET_B VGND VNB VPB VPWR Q
.ends

* Black-box entry subcircuit for sky130_fd_sc_hd__fill_2 abstract view
.subckt sky130_fd_sc_hd__fill_2 VGND VNB VPB VPWR
.ends

* Black-box entry subcircuit for sky130_ef_sc_hd__decap_12 abstract view
.subckt sky130_ef_sc_hd__decap_12 VGND VNB VPB VPWR
.ends

* Black-box entry subcircuit for sky130_fd_sc_hd__fill_1 abstract view
.subckt sky130_fd_sc_hd__fill_1 VGND VNB VPB VPWR
.ends

* Black-box entry subcircuit for sky130_fd_sc_hd__decap_4 abstract view
.subckt sky130_fd_sc_hd__decap_4 VGND VNB VPB VPWR
.ends

* Black-box entry subcircuit for sky130_fd_sc_hd__mux2_1 abstract view
.subckt sky130_fd_sc_hd__mux2_1 A0 A1 S VGND VNB VPB VPWR X
.ends

* Black-box entry subcircuit for sky130_fd_sc_hd__decap_3 abstract view
.subckt sky130_fd_sc_hd__decap_3 VGND VNB VPB VPWR
.ends

* Black-box entry subcircuit for sky130_fd_sc_hd__diode_2 abstract view
.subckt sky130_fd_sc_hd__diode_2 DIODE VGND VNB VPB VPWR
.ends

* Black-box entry subcircuit for sky130_fd_sc_hd__clkbuf_1 abstract view
.subckt sky130_fd_sc_hd__clkbuf_1 A VGND VNB VPB VPWR X
.ends

* Black-box entry subcircuit for sky130_fd_sc_hd__clkdlybuf4s25_1 abstract view
.subckt sky130_fd_sc_hd__clkdlybuf4s25_1 A VGND VNB VPB VPWR X
.ends

* Black-box entry subcircuit for sky130_fd_sc_hd__clkdlybuf4s50_1 abstract view
.subckt sky130_fd_sc_hd__clkdlybuf4s50_1 A VGND VNB VPB VPWR X
.ends

* Black-box entry subcircuit for sky130_fd_sc_hd__clkbuf_16 abstract view
.subckt sky130_fd_sc_hd__clkbuf_16 A VGND VNB VPB VPWR X
.ends

* Black-box entry subcircuit for sky130_fd_sc_hd__clkbuf_2 abstract view
.subckt sky130_fd_sc_hd__clkbuf_2 A VGND VNB VPB VPWR X
.ends

* Black-box entry subcircuit for sky130_fd_sc_hd__decap_6 abstract view
.subckt sky130_fd_sc_hd__decap_6 VGND VNB VPB VPWR
.ends

* Black-box entry subcircuit for sky130_fd_sc_hd__conb_1 abstract view
.subckt sky130_fd_sc_hd__conb_1 VGND VNB VPB VPWR HI LO
.ends

* Black-box entry subcircuit for sky130_fd_sc_hd__dlymetal6s2s_1 abstract view
.subckt sky130_fd_sc_hd__dlymetal6s2s_1 A VGND VNB VPB VPWR X
.ends

* Black-box entry subcircuit for sky130_fd_sc_hd__buf_12 abstract view
.subckt sky130_fd_sc_hd__buf_12 A VGND VNB VPB VPWR X
.ends

* Black-box entry subcircuit for sky130_fd_sc_hd__decap_8 abstract view
.subckt sky130_fd_sc_hd__decap_8 VGND VNB VPB VPWR
.ends

* Black-box entry subcircuit for sky130_fd_sc_hd__buf_4 abstract view
.subckt sky130_fd_sc_hd__buf_4 A VGND VNB VPB VPWR X
.ends

* Black-box entry subcircuit for sky130_fd_sc_hd__or2_1 abstract view
.subckt sky130_fd_sc_hd__or2_1 A B VGND VNB VPB VPWR X
.ends

* Black-box entry subcircuit for sky130_fd_sc_hd__dfrtp_2 abstract view
.subckt sky130_fd_sc_hd__dfrtp_2 CLK D RESET_B VGND VNB VPB VPWR Q
.ends

* Black-box entry subcircuit for sky130_fd_sc_hd__ebufn_8 abstract view
.subckt sky130_fd_sc_hd__ebufn_8 A TE_B VGND VNB VPB VPWR Z
.ends

* Black-box entry subcircuit for sky130_fd_sc_hd__sdfrtp_1 abstract view
.subckt sky130_fd_sc_hd__sdfrtp_1 CLK D RESET_B SCD SCE VGND VNB VPB VPWR Q
.ends

* Black-box entry subcircuit for sky130_fd_sc_hd__dfrtp_4 abstract view
.subckt sky130_fd_sc_hd__dfrtp_4 CLK D RESET_B VGND VNB VPB VPWR Q
.ends

* Black-box entry subcircuit for sky130_fd_sc_hd__mux2_8 abstract view
.subckt sky130_fd_sc_hd__mux2_8 A0 A1 S VGND VNB VPB VPWR X
.ends

* Black-box entry subcircuit for sky130_fd_sc_hd__buf_2 abstract view
.subckt sky130_fd_sc_hd__buf_2 A VGND VNB VPB VPWR X
.ends

* Black-box entry subcircuit for sky130_fd_sc_hd__mux2_4 abstract view
.subckt sky130_fd_sc_hd__mux2_4 A0 A1 S VGND VNB VPB VPWR X
.ends

* Black-box entry subcircuit for sky130_fd_sc_hd__clkbuf_4 abstract view
.subckt sky130_fd_sc_hd__clkbuf_4 A VGND VNB VPB VPWR X
.ends

* Black-box entry subcircuit for sky130_fd_sc_hd__or2b_2 abstract view
.subckt sky130_fd_sc_hd__or2b_2 A B_N VGND VNB VPB VPWR X
.ends

* Black-box entry subcircuit for sky130_fd_sc_hd__clkbuf_8 abstract view
.subckt sky130_fd_sc_hd__clkbuf_8 A VGND VNB VPB VPWR X
.ends

* Black-box entry subcircuit for sky130_fd_sc_hd__buf_6 abstract view
.subckt sky130_fd_sc_hd__buf_6 A VGND VNB VPB VPWR X
.ends

* Black-box entry subcircuit for sky130_fd_sc_hd__inv_1 abstract view
.subckt sky130_fd_sc_hd__inv_1 A VGND VNB VPB VPWR Y
.ends

* Black-box entry subcircuit for sky130_fd_sc_hd__sdfrtp_2 abstract view
.subckt sky130_fd_sc_hd__sdfrtp_2 CLK D RESET_B SCD SCE VGND VNB VPB VPWR Q
.ends

.subckt right_tile VGND VPWR bottom_width_0_height_0_subtile_0__pin_cout_0_ bottom_width_0_height_0_subtile_0__pin_reg_out_0_
+ ccff_head_0_0 ccff_head_1 ccff_head_2 ccff_tail ccff_tail_0 ccff_tail_1 chanx_left_in[0]
+ chanx_left_in[10] chanx_left_in[11] chanx_left_in[12] chanx_left_in[13] chanx_left_in[14]
+ chanx_left_in[15] chanx_left_in[16] chanx_left_in[17] chanx_left_in[18] chanx_left_in[19]
+ chanx_left_in[1] chanx_left_in[20] chanx_left_in[21] chanx_left_in[22] chanx_left_in[23]
+ chanx_left_in[24] chanx_left_in[25] chanx_left_in[26] chanx_left_in[27] chanx_left_in[28]
+ chanx_left_in[29] chanx_left_in[2] chanx_left_in[3] chanx_left_in[4] chanx_left_in[5]
+ chanx_left_in[6] chanx_left_in[7] chanx_left_in[8] chanx_left_in[9] chanx_left_out[0]
+ chanx_left_out[10] chanx_left_out[11] chanx_left_out[12] chanx_left_out[13] chanx_left_out[14]
+ chanx_left_out[15] chanx_left_out[16] chanx_left_out[17] chanx_left_out[18] chanx_left_out[19]
+ chanx_left_out[1] chanx_left_out[20] chanx_left_out[21] chanx_left_out[22] chanx_left_out[23]
+ chanx_left_out[24] chanx_left_out[25] chanx_left_out[26] chanx_left_out[27] chanx_left_out[28]
+ chanx_left_out[29] chanx_left_out[2] chanx_left_out[3] chanx_left_out[4] chanx_left_out[5]
+ chanx_left_out[6] chanx_left_out[7] chanx_left_out[8] chanx_left_out[9] chany_bottom_in[0]
+ chany_bottom_in[10] chany_bottom_in[11] chany_bottom_in[12] chany_bottom_in[13]
+ chany_bottom_in[14] chany_bottom_in[15] chany_bottom_in[16] chany_bottom_in[17]
+ chany_bottom_in[18] chany_bottom_in[19] chany_bottom_in[1] chany_bottom_in[20] chany_bottom_in[21]
+ chany_bottom_in[22] chany_bottom_in[23] chany_bottom_in[24] chany_bottom_in[25]
+ chany_bottom_in[26] chany_bottom_in[27] chany_bottom_in[28] chany_bottom_in[29]
+ chany_bottom_in[2] chany_bottom_in[3] chany_bottom_in[4] chany_bottom_in[5] chany_bottom_in[6]
+ chany_bottom_in[7] chany_bottom_in[8] chany_bottom_in[9] chany_bottom_out[0] chany_bottom_out[10]
+ chany_bottom_out[11] chany_bottom_out[12] chany_bottom_out[13] chany_bottom_out[14]
+ chany_bottom_out[15] chany_bottom_out[16] chany_bottom_out[17] chany_bottom_out[18]
+ chany_bottom_out[19] chany_bottom_out[1] chany_bottom_out[20] chany_bottom_out[21]
+ chany_bottom_out[22] chany_bottom_out[23] chany_bottom_out[24] chany_bottom_out[25]
+ chany_bottom_out[26] chany_bottom_out[27] chany_bottom_out[28] chany_bottom_out[29]
+ chany_bottom_out[2] chany_bottom_out[3] chany_bottom_out[4] chany_bottom_out[5]
+ chany_bottom_out[6] chany_bottom_out[7] chany_bottom_out[8] chany_bottom_out[9]
+ chany_top_in_0[0] chany_top_in_0[10] chany_top_in_0[11] chany_top_in_0[12] chany_top_in_0[13]
+ chany_top_in_0[14] chany_top_in_0[15] chany_top_in_0[16] chany_top_in_0[17] chany_top_in_0[18]
+ chany_top_in_0[19] chany_top_in_0[1] chany_top_in_0[20] chany_top_in_0[21] chany_top_in_0[22]
+ chany_top_in_0[23] chany_top_in_0[24] chany_top_in_0[25] chany_top_in_0[26] chany_top_in_0[27]
+ chany_top_in_0[28] chany_top_in_0[29] chany_top_in_0[2] chany_top_in_0[3] chany_top_in_0[4]
+ chany_top_in_0[5] chany_top_in_0[6] chany_top_in_0[7] chany_top_in_0[8] chany_top_in_0[9]
+ chany_top_out_0[0] chany_top_out_0[10] chany_top_out_0[11] chany_top_out_0[12] chany_top_out_0[13]
+ chany_top_out_0[14] chany_top_out_0[15] chany_top_out_0[16] chany_top_out_0[17]
+ chany_top_out_0[18] chany_top_out_0[19] chany_top_out_0[1] chany_top_out_0[20] chany_top_out_0[21]
+ chany_top_out_0[22] chany_top_out_0[23] chany_top_out_0[24] chany_top_out_0[25]
+ chany_top_out_0[26] chany_top_out_0[27] chany_top_out_0[28] chany_top_out_0[29]
+ chany_top_out_0[2] chany_top_out_0[3] chany_top_out_0[4] chany_top_out_0[5] chany_top_out_0[6]
+ chany_top_out_0[7] chany_top_out_0[8] chany_top_out_0[9] clk0 gfpga_pad_io_soc_dir[0]
+ gfpga_pad_io_soc_dir[1] gfpga_pad_io_soc_dir[2] gfpga_pad_io_soc_dir[3] gfpga_pad_io_soc_in[0]
+ gfpga_pad_io_soc_in[1] gfpga_pad_io_soc_in[2] gfpga_pad_io_soc_in[3] gfpga_pad_io_soc_out[0]
+ gfpga_pad_io_soc_out[1] gfpga_pad_io_soc_out[2] gfpga_pad_io_soc_out[3] isol_n left_width_0_height_0_subtile_0__pin_inpad_0_
+ left_width_0_height_0_subtile_1__pin_inpad_0_ left_width_0_height_0_subtile_2__pin_inpad_0_
+ left_width_0_height_0_subtile_3__pin_inpad_0_ prog_clk prog_reset reset right_width_0_height_0_subtile_0__pin_O_10_
+ right_width_0_height_0_subtile_0__pin_O_11_ right_width_0_height_0_subtile_0__pin_O_12_
+ right_width_0_height_0_subtile_0__pin_O_13_ right_width_0_height_0_subtile_0__pin_O_14_
+ right_width_0_height_0_subtile_0__pin_O_15_ right_width_0_height_0_subtile_0__pin_O_8_
+ right_width_0_height_0_subtile_0__pin_O_9_ sc_in sc_out test_enable top_left_grid_right_width_0_height_0_subtile_0__pin_O_10_
+ top_left_grid_right_width_0_height_0_subtile_0__pin_O_11_ top_left_grid_right_width_0_height_0_subtile_0__pin_O_12_
+ top_left_grid_right_width_0_height_0_subtile_0__pin_O_13_ top_left_grid_right_width_0_height_0_subtile_0__pin_O_14_
+ top_left_grid_right_width_0_height_0_subtile_0__pin_O_15_ top_left_grid_right_width_0_height_0_subtile_0__pin_O_8_
+ top_left_grid_right_width_0_height_0_subtile_0__pin_O_9_ top_right_grid_left_width_0_height_0_subtile_0__pin_inpad_0_
+ top_right_grid_left_width_0_height_0_subtile_1__pin_inpad_0_ top_right_grid_left_width_0_height_0_subtile_2__pin_inpad_0_
+ top_right_grid_left_width_0_height_0_subtile_3__pin_inpad_0_ top_width_0_height_0_subtile_0__pin_O_0_
+ top_width_0_height_0_subtile_0__pin_O_1_ top_width_0_height_0_subtile_0__pin_O_2_
+ top_width_0_height_0_subtile_0__pin_O_3_ top_width_0_height_0_subtile_0__pin_O_4_
+ top_width_0_height_0_subtile_0__pin_O_5_ top_width_0_height_0_subtile_0__pin_O_6_
+ top_width_0_height_0_subtile_0__pin_O_7_ top_width_0_height_0_subtile_0__pin_cin_0_
+ top_width_0_height_0_subtile_0__pin_reg_in_0_
XTAP_199 VGND VPWR sky130_fd_sc_hd__tapvpwrvgnd_1
Xgrid_clb_8__1_.logical_tile_clb_mode_clb__0.logical_tile_clb_mode_default__fle_6.logical_tile_clb_mode_default__fle_mode_physical__fabric_0.logical_tile_clb_mode_default__fle_mode_physical__fabric_mode_default__frac_logic_0.mem_frac_lut4_0_in_2.sky130_fd_sc_hd__dfrtp_1_1_
+ clknet_leaf_39_prog_clk net788 net240 VGND VGND VPWR VPWR grid_clb_8__1_.logical_tile_clb_mode_clb__0.logical_tile_clb_mode_default__fle_6.logical_tile_clb_mode_default__fle_mode_physical__fabric_0.logical_tile_clb_mode_default__fle_mode_physical__fabric_mode_default__frac_logic_0.ccff_tail
+ sky130_fd_sc_hd__dfrtp_1
Xcby_8__1_.cby_8__8_.mem_right_ipin_2.sky130_fd_sc_hd__dfrtp_1_2_ clknet_leaf_32_prog_clk
+ net882 net248 VGND VGND VPWR VPWR cby_8__1_.cby_8__8_.mem_right_ipin_2.mem_out\[2\]
+ sky130_fd_sc_hd__dfrtp_1
XFILLER_39_222 VGND VGND VPWR VPWR sky130_fd_sc_hd__fill_2
XFILLER_82_501 VGND VGND VPWR VPWR sky130_ef_sc_hd__decap_12
XFILLER_39_266 VGND VGND VPWR VPWR sky130_fd_sc_hd__fill_1
XFILLER_39_299 VGND VGND VPWR VPWR sky130_fd_sc_hd__decap_4
Xcby_8__1_.cby_8__8_.mux_right_ipin_10.mux_l2_in_0_ net531 cby_8__1_.cby_8__8_.mux_right_ipin_10.sky130_fd_sc_hd__mux2_1_0_X
+ cby_8__1_.cby_8__8_.mem_right_ipin_10.mem_out\[1\] VGND VGND VPWR VPWR cby_8__1_.cby_8__8_.mux_right_ipin_10.sky130_fd_sc_hd__mux2_1_5_X
+ sky130_fd_sc_hd__mux2_1
XFILLER_54_247 VGND VGND VPWR VPWR sky130_fd_sc_hd__decap_3
XANTENNA_sb_8__1_.mux_top_track_10.mux_l1_in_2__A0 top_right_grid_left_width_0_height_0_subtile_3__pin_inpad_0_
+ VGND VGND VPWR VPWR sky130_fd_sc_hd__diode_2
XFILLER_22_100 VGND VGND VPWR VPWR sky130_fd_sc_hd__decap_4
XFILLER_62_291 VGND VGND VPWR VPWR sky130_fd_sc_hd__decap_4
XFILLER_35_494 VGND VGND VPWR VPWR sky130_fd_sc_hd__decap_4
XFILLER_52_29 VGND VGND VPWR VPWR sky130_fd_sc_hd__fill_2
XFILLER_10_306 VGND VGND VPWR VPWR sky130_fd_sc_hd__fill_2
Xgrid_clb_8__1_.logical_tile_clb_mode_clb__0.logical_tile_clb_mode_default__fle_7.logical_tile_clb_mode_default__fle_mode_physical__fabric_0.mem_fabric_out_0.sky130_fd_sc_hd__dfrtp_1_1_
+ clknet_leaf_36_prog_clk net863 net244 VGND VGND VPWR VPWR grid_clb_8__1_.logical_tile_clb_mode_clb__0.logical_tile_clb_mode_default__fle_7.logical_tile_clb_mode_default__fle_mode_physical__fabric_0.mem_fabric_out_0.ccff_tail
+ sky130_fd_sc_hd__dfrtp_1
XANTENNA_cbx_8__1_.mux_top_ipin_5.mux_l1_in_2__A1 net13 VGND VGND VPWR VPWR sky130_fd_sc_hd__diode_2
Xcby_8__1_.cby_8__8_.mux_right_ipin_6.sky130_fd_sc_hd__buf_4_0_ net512 VGND VGND VPWR
+ VPWR cby_8__1_.cby_8__8_.left_grid_right_width_0_height_0_subtile_0__pin_I5i_0_
+ sky130_fd_sc_hd__clkbuf_1
Xhold340 grid_clb_8__1_.logical_tile_clb_mode_clb__0.logical_tile_clb_mode_default__fle_2.logical_tile_clb_mode_default__fle_mode_physical__fabric_0.logical_tile_clb_mode_default__fle_mode_physical__fabric_mode_default__frac_logic_0.logical_tile_clb_mode_default__fle_mode_physical__fabric_mode_default__frac_logic_mode_default__frac_lut4_0.frac_lut4_0_.frac_lut4_mux_0_.in\[8\]
+ VGND VGND VPWR VPWR net750 sky130_fd_sc_hd__clkdlybuf4s25_1
Xhold351 sb_8__1_.mem_top_track_36.ccff_tail VGND VGND VPWR VPWR net761 sky130_fd_sc_hd__clkdlybuf4s25_1
Xhold362 grid_clb_8__1_.logical_tile_clb_mode_clb__0.logical_tile_clb_mode_default__fle_4.logical_tile_clb_mode_default__fle_mode_physical__fabric_0.logical_tile_clb_mode_default__fle_mode_physical__fabric_mode_default__frac_logic_0.ccff_tail
+ VGND VGND VPWR VPWR net772 sky130_fd_sc_hd__clkdlybuf4s25_1
Xhold384 grid_clb_8__1_.logical_tile_clb_mode_clb__0.logical_tile_clb_mode_default__fle_2.logical_tile_clb_mode_default__fle_mode_physical__fabric_0.logical_tile_clb_mode_default__fle_mode_physical__fabric_mode_default__frac_logic_0.logical_tile_clb_mode_default__fle_mode_physical__fabric_mode_default__frac_logic_mode_default__frac_lut4_0.frac_lut4_0_.frac_lut4_mux_0_.in\[4\]
+ VGND VGND VPWR VPWR net794 sky130_fd_sc_hd__clkdlybuf4s50_1
Xhold395 grid_clb_8__1_.logical_tile_clb_mode_clb__0.logical_tile_clb_mode_default__fle_2.logical_tile_clb_mode_default__fle_mode_physical__fabric_0.mem_ff_1_D_0.mem_out\[0\]
+ VGND VGND VPWR VPWR net805 sky130_fd_sc_hd__clkdlybuf4s25_1
Xclkbuf_leaf_53_prog_clk clknet_2_0__leaf_prog_clk VGND VGND VPWR VPWR clknet_leaf_53_prog_clk
+ sky130_fd_sc_hd__clkbuf_16
Xhold373 grid_clb_8__1_.logical_tile_clb_mode_clb__0.logical_tile_clb_mode_default__fle_6.logical_tile_clb_mode_default__fle_mode_physical__fabric_0.mem_ff_0_D_0.mem_out\[0\]
+ VGND VGND VPWR VPWR net783 sky130_fd_sc_hd__clkdlybuf4s25_1
Xgrid_clb_8__1_.logical_tile_clb_mode_clb__0.logical_tile_clb_mode_default__fle_5.logical_tile_clb_mode_default__fle_mode_physical__fabric_0.logical_tile_clb_mode_default__fle_mode_physical__fabric_mode_default__frac_logic_0.logical_tile_clb_mode_default__fle_mode_physical__fabric_mode_default__frac_logic_mode_default__frac_lut4_0.frac_lut4_0_.frac_lut4_mux_0_.mux_l2_in_2_
+ grid_clb_8__1_.logical_tile_clb_mode_clb__0.logical_tile_clb_mode_default__fle_5.logical_tile_clb_mode_default__fle_mode_physical__fabric_0.logical_tile_clb_mode_default__fle_mode_physical__fabric_mode_default__frac_logic_0.logical_tile_clb_mode_default__fle_mode_physical__fabric_mode_default__frac_logic_mode_default__frac_lut4_0.frac_lut4_0_.frac_lut4_mux_0_.sky130_fd_sc_hd__mux2_1_5_X
+ grid_clb_8__1_.logical_tile_clb_mode_clb__0.logical_tile_clb_mode_default__fle_5.logical_tile_clb_mode_default__fle_mode_physical__fabric_0.logical_tile_clb_mode_default__fle_mode_physical__fabric_mode_default__frac_logic_0.logical_tile_clb_mode_default__fle_mode_physical__fabric_mode_default__frac_logic_mode_default__frac_lut4_0.frac_lut4_0_.frac_lut4_mux_0_.sky130_fd_sc_hd__mux2_1_4_X
+ grid_clb_8__1_.logical_tile_clb_mode_clb__0.logical_tile_clb_mode_default__fle_5.logical_tile_clb_mode_default__fle_mode_physical__fabric_0.logical_tile_clb_mode_default__fle_mode_physical__fabric_mode_default__frac_logic_0.logical_tile_clb_mode_default__fle_mode_physical__fabric_mode_default__frac_logic_mode_default__frac_lut4_0.frac_lut4_0_.sky130_fd_sc_hd__buf_2_1_X
+ VGND VGND VPWR VPWR grid_clb_8__1_.logical_tile_clb_mode_clb__0.logical_tile_clb_mode_default__fle_5.logical_tile_clb_mode_default__fle_mode_physical__fabric_0.logical_tile_clb_mode_default__fle_mode_physical__fabric_mode_default__frac_logic_0.logical_tile_clb_mode_default__fle_mode_physical__fabric_mode_default__frac_logic_mode_default__frac_lut4_0.frac_lut4_0_.frac_lut4_mux_0_.sky130_fd_sc_hd__mux2_1_10_X
+ sky130_fd_sc_hd__mux2_1
XANTENNA_sb_8__1_.mux_bottom_track_3.mux_l2_in_2__A1 net23 VGND VGND VPWR VPWR sky130_fd_sc_hd__diode_2
XFILLER_89_166 VGND VGND VPWR VPWR sky130_fd_sc_hd__fill_2
XFILLER_92_309 VGND VGND VPWR VPWR sky130_fd_sc_hd__fill_2
XFILLER_93_14 VGND VGND VPWR VPWR sky130_fd_sc_hd__decap_4
XFILLER_85_383 VGND VGND VPWR VPWR sky130_fd_sc_hd__decap_4
Xgrid_clb_8__1_.logical_tile_clb_mode_clb__0.logical_tile_clb_mode_default__fle_4.logical_tile_clb_mode_default__fle_mode_physical__fabric_0.logical_tile_clb_mode_default__fle_mode_physical__fabric_mode_default__frac_logic_0.mux_frac_lut4_0_in_2.mux_l2_in_0_
+ net330 net455 grid_clb_8__1_.logical_tile_clb_mode_clb__0.logical_tile_clb_mode_default__fle_4.logical_tile_clb_mode_default__fle_mode_physical__fabric_0.logical_tile_clb_mode_default__fle_mode_physical__fabric_mode_default__frac_logic_0.ccff_tail
+ VGND VGND VPWR VPWR grid_clb_8__1_.logical_tile_clb_mode_clb__0.logical_tile_clb_mode_default__fle_4.logical_tile_clb_mode_default__fle_mode_physical__fabric_0.logical_tile_clb_mode_default__fle_mode_physical__fabric_mode_default__frac_logic_0.mux_frac_lut4_0_in_2.out
+ sky130_fd_sc_hd__mux2_1
Xsb_8__1_.mux_top_track_2.mux_l2_in_3_ net394 net32 sb_8__1_.mem_top_track_2.mem_out\[1\]
+ VGND VGND VPWR VPWR sb_8__1_.mux_top_track_2.sky130_fd_sc_hd__mux2_1_4_X sky130_fd_sc_hd__mux2_1
XFILLER_26_41 VGND VGND VPWR VPWR sky130_fd_sc_hd__decap_4
XFILLER_60_228 VGND VGND VPWR VPWR sky130_fd_sc_hd__decap_4
XFILLER_13_100 VGND VGND VPWR VPWR sky130_fd_sc_hd__decap_4
Xsb_8__1_.mem_top_track_2.sky130_fd_sc_hd__dfrtp_1_3_ clknet_leaf_21_prog_clk net901
+ net265 VGND VGND VPWR VPWR sb_8__1_.mem_top_track_2.ccff_tail sky130_fd_sc_hd__dfrtp_1
XFILLER_13_166 VGND VGND VPWR VPWR sky130_fd_sc_hd__fill_2
XFILLER_13_155 VGND VGND VPWR VPWR sky130_fd_sc_hd__fill_2
XANTENNA_input92_A chany_top_in_0[8] VGND VGND VPWR VPWR sky130_fd_sc_hd__diode_2
X_294_ sb_8__1_.mux_left_track_3.out VGND VGND VPWR VPWR net138 sky130_fd_sc_hd__clkbuf_2
XANTENNA_grid_clb_8__1_.logical_tile_clb_mode_clb__0.logical_tile_clb_mode_default__fle_2.logical_tile_clb_mode_default__fle_mode_physical__fabric_0.mem_ff_0_D_0.sky130_fd_sc_hd__dfrtp_1_1__RESET_B
+ net273 VGND VGND VPWR VPWR sky130_fd_sc_hd__diode_2
XFILLER_5_365 VGND VGND VPWR VPWR sky130_fd_sc_hd__decap_3
XANTENNA_grid_clb_8__1_.logical_tile_clb_mode_clb__0.logical_tile_clb_mode_default__fle_2.logical_tile_clb_mode_default__fle_mode_physical__fabric_0.mem_fabric_out_0.sky130_fd_sc_hd__dfrtp_1_1__RESET_B
+ net260 VGND VGND VPWR VPWR sky130_fd_sc_hd__diode_2
XFILLER_68_306 VGND VGND VPWR VPWR sky130_fd_sc_hd__fill_2
XFILLER_3_78 VGND VGND VPWR VPWR sky130_fd_sc_hd__decap_4
XFILLER_95_169 VGND VGND VPWR VPWR sky130_fd_sc_hd__fill_2
XFILLER_64_501 VGND VGND VPWR VPWR sky130_ef_sc_hd__decap_12
Xgrid_clb_8__1_.logical_tile_clb_mode_clb__0.logical_tile_clb_mode_default__fle_5.logical_tile_clb_mode_default__fle_mode_physical__fabric_0.logical_tile_clb_mode_default__fle_mode_physical__fabric_mode_default__frac_logic_0.logical_tile_clb_mode_default__fle_mode_physical__fabric_mode_default__frac_logic_mode_default__frac_lut4_0.frac_lut4_0_.sky130_fd_sc_hd__buf_2_3_
+ net491 VGND VGND VPWR VPWR grid_clb_8__1_.logical_tile_clb_mode_clb__0.logical_tile_clb_mode_default__fle_5.logical_tile_clb_mode_default__fle_mode_physical__fabric_0.logical_tile_clb_mode_default__fle_mode_physical__fabric_mode_default__frac_logic_0.logical_tile_clb_mode_default__fle_mode_physical__fabric_mode_default__frac_logic_mode_default__frac_lut4_0.frac_lut4_0_.sky130_fd_sc_hd__buf_2_3_X
+ sky130_fd_sc_hd__clkbuf_1
XFILLER_91_331 VGND VGND VPWR VPWR sky130_fd_sc_hd__fill_2
XFILLER_91_386 VGND VGND VPWR VPWR sky130_fd_sc_hd__decap_6
XFILLER_32_464 VGND VGND VPWR VPWR sky130_fd_sc_hd__fill_1
XANTENNA__304__A net93 VGND VGND VPWR VPWR sky130_fd_sc_hd__diode_2
Xsb_8__1_.mux_bottom_track_13.mux_l1_in_2_ net7 net19 sb_8__1_.mem_bottom_track_13.mem_out\[0\]
+ VGND VGND VPWR VPWR sb_8__1_.mux_bottom_track_13.sky130_fd_sc_hd__mux2_1_2_X sky130_fd_sc_hd__mux2_1
XANTENNA_sb_8__1_.mux_left_track_17.mux_l1_in_0__A0 net39 VGND VGND VPWR VPWR sky130_fd_sc_hd__diode_2
XFILLER_74_309 VGND VGND VPWR VPWR sky130_fd_sc_hd__fill_2
XFILLER_55_501 VGND VGND VPWR VPWR sky130_fd_sc_hd__decap_3
Xcby_8__1_.cby_8__8_.mux_left_ipin_2.mux_l2_in_1_ cby_8__1_.cby_8__8_.mux_left_ipin_2.sky130_fd_sc_hd__mux2_1_3_X
+ cby_8__1_.cby_8__8_.mux_left_ipin_2.sky130_fd_sc_hd__mux2_1_2_X cby_8__1_.cby_8__8_.mem_left_ipin_2.mem_out\[1\]
+ VGND VGND VPWR VPWR cby_8__1_.cby_8__8_.mux_left_ipin_2.sky130_fd_sc_hd__mux2_1_6_X
+ sky130_fd_sc_hd__mux2_1
XFILLER_82_320 VGND VGND VPWR VPWR sky130_fd_sc_hd__decap_4
XFILLER_67_372 VGND VGND VPWR VPWR sky130_fd_sc_hd__decap_4
XFILLER_27_225 VGND VGND VPWR VPWR sky130_fd_sc_hd__fill_2
Xgrid_clb_8__1_.logical_tile_clb_mode_clb__0.logical_tile_clb_mode_default__fle_4.logical_tile_clb_mode_default__fle_mode_physical__fabric_0.mux_ff_1_D_0.mux_l2_in_0_
+ net334 grid_clb_8__1_.logical_tile_clb_mode_clb__0.logical_tile_clb_mode_default__fle_4.logical_tile_clb_mode_default__fle_mode_physical__fabric_0.mux_ff_1_D_0.sky130_fd_sc_hd__mux2_1_0_X
+ grid_clb_8__1_.logical_tile_clb_mode_clb__0.logical_tile_clb_mode_default__fle_4.ccff_tail
+ VGND VGND VPWR VPWR grid_clb_8__1_.logical_tile_clb_mode_clb__0.logical_tile_clb_mode_default__fle_4.logical_tile_clb_mode_default__fle_mode_physical__fabric_0.logical_tile_clb_mode_default__fle_mode_physical__fabric_mode_default__ff_1.ff_D
+ sky130_fd_sc_hd__mux2_1
XFILLER_27_258 VGND VGND VPWR VPWR sky130_fd_sc_hd__decap_4
XFILLER_63_39 VGND VGND VPWR VPWR sky130_fd_sc_hd__decap_4
Xsb_8__1_.mem_left_track_23.sky130_fd_sc_hd__dfrtp_1_0_ clknet_leaf_53_prog_clk net897
+ net229 VGND VGND VPWR VPWR sb_8__1_.mem_left_track_23.mem_out\[0\] sky130_fd_sc_hd__dfrtp_1
XFILLER_42_239 VGND VGND VPWR VPWR sky130_fd_sc_hd__fill_2
XFILLER_23_453 VGND VGND VPWR VPWR sky130_fd_sc_hd__fill_2
XFILLER_23_475 VGND VGND VPWR VPWR sky130_fd_sc_hd__decap_4
XFILLER_50_250 VGND VGND VPWR VPWR sky130_fd_sc_hd__fill_2
Xsb_8__1_.mem_bottom_track_1.sky130_fd_sc_hd__dfrtp_1_2_ clknet_leaf_44_prog_clk sb_8__1_.mem_bottom_track_1.mem_out\[1\]
+ net246 VGND VGND VPWR VPWR sb_8__1_.mem_bottom_track_1.mem_out\[2\] sky130_fd_sc_hd__dfrtp_1
XFILLER_12_65 VGND VGND VPWR VPWR sky130_ef_sc_hd__decap_12
XFILLER_88_69 VGND VGND VPWR VPWR sky130_fd_sc_hd__decap_4
XFILLER_88_47 VGND VGND VPWR VPWR sky130_fd_sc_hd__fill_2
Xhold170 grid_clb_8__1_.logical_tile_clb_mode_clb__0.logical_tile_clb_mode_default__fle_0.logical_tile_clb_mode_default__fle_mode_physical__fabric_0.logical_tile_clb_mode_default__fle_mode_physical__fabric_mode_default__frac_logic_0.logical_tile_clb_mode_default__fle_mode_physical__fabric_mode_default__frac_logic_mode_default__frac_lut4_0.frac_lut4_0_.frac_lut4_mux_0_.in\[3\]
+ VGND VGND VPWR VPWR net580 sky130_fd_sc_hd__clkdlybuf4s25_1
XFILLER_2_335 VGND VGND VPWR VPWR sky130_fd_sc_hd__fill_1
Xhold192 grid_clb_8__1_.logical_tile_clb_mode_clb__0.logical_tile_clb_mode_default__fle_3.logical_tile_clb_mode_default__fle_mode_physical__fabric_0.logical_tile_clb_mode_default__fle_mode_physical__fabric_mode_default__frac_logic_0.logical_tile_clb_mode_default__fle_mode_physical__fabric_mode_default__frac_logic_mode_default__frac_lut4_0.frac_lut4_0_.frac_lut4_mux_0_.in\[15\]
+ VGND VGND VPWR VPWR net602 sky130_fd_sc_hd__clkdlybuf4s25_1
Xgrid_clb_8__1_.logical_tile_clb_mode_clb__0.logical_tile_clb_mode_default__fle_5.logical_tile_clb_mode_default__fle_mode_physical__fabric_0.logical_tile_clb_mode_default__fle_mode_physical__fabric_mode_default__frac_logic_0.logical_tile_clb_mode_default__fle_mode_physical__fabric_mode_default__frac_logic_mode_default__frac_lut4_0.frac_lut4_sky130_fd_sc_hd__dfrtp_1_mem.sky130_fd_sc_hd__dfrtp_1_5_
+ clknet_leaf_35_prog_clk net699 net250 VGND VGND VPWR VPWR grid_clb_8__1_.logical_tile_clb_mode_clb__0.logical_tile_clb_mode_default__fle_5.logical_tile_clb_mode_default__fle_mode_physical__fabric_0.logical_tile_clb_mode_default__fle_mode_physical__fabric_mode_default__frac_logic_0.logical_tile_clb_mode_default__fle_mode_physical__fabric_mode_default__frac_logic_mode_default__frac_lut4_0.frac_lut4_0_.frac_lut4_mux_0_.in\[5\]
+ sky130_fd_sc_hd__dfrtp_1
Xhold181 cby_8__1_.cby_8__8_.mem_right_ipin_3.ccff_tail VGND VGND VPWR VPWR net591
+ sky130_fd_sc_hd__clkdlybuf4s25_1
XFILLER_77_169 VGND VGND VPWR VPWR sky130_fd_sc_hd__fill_2
XFILLER_73_320 VGND VGND VPWR VPWR sky130_fd_sc_hd__decap_4
XFILLER_58_383 VGND VGND VPWR VPWR sky130_fd_sc_hd__fill_1
Xgrid_clb_8__1_.logical_tile_clb_mode_clb__0.logical_tile_clb_mode_default__fle_5.logical_tile_clb_mode_default__fle_mode_physical__fabric_0.mem_fabric_out_0.sky130_fd_sc_hd__dfrtp_1_0_
+ clknet_leaf_33_prog_clk net611 net249 VGND VGND VPWR VPWR grid_clb_8__1_.logical_tile_clb_mode_clb__0.logical_tile_clb_mode_default__fle_5.logical_tile_clb_mode_default__fle_mode_physical__fabric_0.mem_fabric_out_0.mem_out\[0\]
+ sky130_fd_sc_hd__dfrtp_1
XFILLER_85_191 VGND VGND VPWR VPWR sky130_fd_sc_hd__decap_4
XFILLER_33_206 VGND VGND VPWR VPWR sky130_fd_sc_hd__decap_4
Xcbx_8__1_.mux_top_ipin_10.mux_l2_in_1_ cbx_8__1_.mux_top_ipin_10.sky130_fd_sc_hd__mux2_1_3_X
+ cbx_8__1_.mux_top_ipin_10.sky130_fd_sc_hd__mux2_1_2_X cbx_8__1_.mem_top_ipin_10.mem_out\[1\]
+ VGND VGND VPWR VPWR cbx_8__1_.mux_top_ipin_10.sky130_fd_sc_hd__mux2_1_6_X sky130_fd_sc_hd__mux2_1
XANTENNA_sb_8__1_.mem_top_track_44.sky130_fd_sc_hd__dfrtp_1_2__RESET_B net263 VGND
+ VGND VPWR VPWR sky130_fd_sc_hd__diode_2
X_346_ net47 VGND VGND VPWR VPWR net190 sky130_fd_sc_hd__clkbuf_2
Xsb_8__1_.mux_left_track_1.mux_l2_in_1__364 VGND VGND VPWR VPWR net364 sb_8__1_.mux_left_track_1.mux_l2_in_1__364/LO
+ sky130_fd_sc_hd__conb_1
X_277_ sb_8__1_.mux_left_track_37.out VGND VGND VPWR VPWR net120 sky130_fd_sc_hd__dlymetal6s2s_1
XANTENNA_clkbuf_leaf_23_prog_clk_A clknet_2_3__leaf_prog_clk VGND VGND VPWR VPWR sky130_fd_sc_hd__diode_2
Xcby_8__1_.cby_8__8_.mux_right_ipin_10.mux_l1_in_1_ sb_8__1_.mux_bottom_track_11.out
+ net530 cby_8__1_.cby_8__8_.mem_right_ipin_10.mem_out\[0\] VGND VGND VPWR VPWR cby_8__1_.cby_8__8_.mux_right_ipin_10.sky130_fd_sc_hd__mux2_1_1_X
+ sky130_fd_sc_hd__mux2_1
Xgrid_clb_8__1_.logical_tile_clb_mode_clb__0.logical_tile_clb_mode_default__fle_5.logical_tile_clb_mode_default__fle_mode_physical__fabric_0.logical_tile_clb_mode_default__fle_mode_physical__fabric_mode_default__frac_logic_0.logical_tile_clb_mode_default__fle_mode_physical__fabric_mode_default__frac_logic_mode_default__frac_lut4_0.frac_lut4_sky130_fd_sc_hd__dfrtp_1_mem.sky130_fd_sc_hd__dfrtp_1_14_
+ clknet_leaf_36_prog_clk net739 net243 VGND VGND VPWR VPWR grid_clb_8__1_.logical_tile_clb_mode_clb__0.logical_tile_clb_mode_default__fle_5.logical_tile_clb_mode_default__fle_mode_physical__fabric_0.logical_tile_clb_mode_default__fle_mode_physical__fabric_mode_default__frac_logic_0.logical_tile_clb_mode_default__fle_mode_physical__fabric_mode_default__frac_logic_mode_default__frac_lut4_0.frac_lut4_0_.frac_lut4_mux_0_.in\[14\]
+ sky130_fd_sc_hd__dfrtp_1
XFILLER_49_383 VGND VGND VPWR VPWR sky130_fd_sc_hd__decap_4
XFILLER_76_180 VGND VGND VPWR VPWR sky130_fd_sc_hd__decap_6
XFILLER_64_320 VGND VGND VPWR VPWR sky130_fd_sc_hd__decap_4
XANTENNA_cby_8__1_.cby_8__8_.mux_left_ipin_0.mux_l1_in_1__A0 sb_8__1_.mux_bottom_track_7.out
+ VGND VGND VPWR VPWR sky130_fd_sc_hd__diode_2
XANTENNA_cby_8__1_.cby_8__8_.mux_right_ipin_9.mux_l2_in_3__A1 net498 VGND VGND VPWR
+ VPWR sky130_fd_sc_hd__diode_2
XANTENNA_cby_8__1_.grid_io_right_right_9__8_.logical_tile_io_mode_io__2.logical_tile_io_mode_physical__iopad_0.io_sky130_fd_sc_hd__dfrtp_1_mem.sky130_fd_sc_hd__dfrtp_1_0__RESET_B
+ net250 VGND VGND VPWR VPWR sky130_fd_sc_hd__diode_2
Xgrid_clb_8__1_.logical_tile_clb_mode_clb__0.logical_tile_clb_mode_default__fle_5.logical_tile_clb_mode_default__fle_mode_physical__fabric_0.logical_tile_clb_mode_default__fle_mode_physical__fabric_mode_default__frac_logic_0.logical_tile_clb_mode_default__fle_mode_physical__fabric_mode_default__frac_logic_mode_default__frac_lut4_0.frac_lut4_0_.frac_lut4_mux_0_.mux_l1_in_3_
+ grid_clb_8__1_.logical_tile_clb_mode_clb__0.logical_tile_clb_mode_default__fle_5.logical_tile_clb_mode_default__fle_mode_physical__fabric_0.logical_tile_clb_mode_default__fle_mode_physical__fabric_mode_default__frac_logic_0.logical_tile_clb_mode_default__fle_mode_physical__fabric_mode_default__frac_logic_mode_default__frac_lut4_0.frac_lut4_0_.frac_lut4_mux_0_.in\[7\]
+ grid_clb_8__1_.logical_tile_clb_mode_clb__0.logical_tile_clb_mode_default__fle_5.logical_tile_clb_mode_default__fle_mode_physical__fabric_0.logical_tile_clb_mode_default__fle_mode_physical__fabric_mode_default__frac_logic_0.logical_tile_clb_mode_default__fle_mode_physical__fabric_mode_default__frac_logic_mode_default__frac_lut4_0.frac_lut4_0_.frac_lut4_mux_0_.in\[6\]