* NGSPICE file created from right_tile.ext - technology: sky130A

* Black-box entry subcircuit for sky130_fd_sc_hd__dfrtp_1 abstract view
.subckt sky130_fd_sc_hd__dfrtp_1 CLK D RESET_B VGND VNB VPB VPWR Q
.ends

* Black-box entry subcircuit for sky130_fd_sc_hd__tapvpwrvgnd_1 abstract view
.subckt sky130_fd_sc_hd__tapvpwrvgnd_1 VGND VPWR
.ends

* Black-box entry subcircuit for sky130_fd_sc_hd__fill_2 abstract view
.subckt sky130_fd_sc_hd__fill_2 VGND VNB VPB VPWR
.ends

* Black-box entry subcircuit for sky130_ef_sc_hd__decap_12 abstract view
.subckt sky130_ef_sc_hd__decap_12 VGND VNB VPB VPWR
.ends

* Black-box entry subcircuit for sky130_fd_sc_hd__decap_4 abstract view
.subckt sky130_fd_sc_hd__decap_4 VGND VNB VPB VPWR
.ends

* Black-box entry subcircuit for sky130_fd_sc_hd__fill_1 abstract view
.subckt sky130_fd_sc_hd__fill_1 VGND VNB VPB VPWR
.ends

* Black-box entry subcircuit for sky130_fd_sc_hd__mux2_1 abstract view
.subckt sky130_fd_sc_hd__mux2_1 A0 A1 S VGND VNB VPB VPWR X
.ends

* Black-box entry subcircuit for sky130_fd_sc_hd__clkbuf_1 abstract view
.subckt sky130_fd_sc_hd__clkbuf_1 A VGND VNB VPB VPWR X
.ends

* Black-box entry subcircuit for sky130_fd_sc_hd__clkbuf_16 abstract view
.subckt sky130_fd_sc_hd__clkbuf_16 A VGND VNB VPB VPWR X
.ends

* Black-box entry subcircuit for sky130_fd_sc_hd__decap_3 abstract view
.subckt sky130_fd_sc_hd__decap_3 VGND VNB VPB VPWR
.ends

* Black-box entry subcircuit for sky130_fd_sc_hd__decap_8 abstract view
.subckt sky130_fd_sc_hd__decap_8 VGND VNB VPB VPWR
.ends

* Black-box entry subcircuit for sky130_fd_sc_hd__decap_6 abstract view
.subckt sky130_fd_sc_hd__decap_6 VGND VNB VPB VPWR
.ends

* Black-box entry subcircuit for sky130_fd_sc_hd__clkbuf_2 abstract view
.subckt sky130_fd_sc_hd__clkbuf_2 A VGND VNB VPB VPWR X
.ends

* Black-box entry subcircuit for sky130_fd_sc_hd__conb_1 abstract view
.subckt sky130_fd_sc_hd__conb_1 VGND VNB VPB VPWR HI LO
.ends

* Black-box entry subcircuit for sky130_fd_sc_hd__buf_12 abstract view
.subckt sky130_fd_sc_hd__buf_12 A VGND VNB VPB VPWR X
.ends

* Black-box entry subcircuit for sky130_fd_sc_hd__buf_4 abstract view
.subckt sky130_fd_sc_hd__buf_4 A VGND VNB VPB VPWR X
.ends

* Black-box entry subcircuit for sky130_fd_sc_hd__diode_2 abstract view
.subckt sky130_fd_sc_hd__diode_2 DIODE VGND VNB VPB VPWR
.ends

* Black-box entry subcircuit for sky130_fd_sc_hd__or2_1 abstract view
.subckt sky130_fd_sc_hd__or2_1 A B VGND VNB VPB VPWR X
.ends

* Black-box entry subcircuit for sky130_fd_sc_hd__dfrtp_2 abstract view
.subckt sky130_fd_sc_hd__dfrtp_2 CLK D RESET_B VGND VNB VPB VPWR Q
.ends

* Black-box entry subcircuit for sky130_fd_sc_hd__ebufn_8 abstract view
.subckt sky130_fd_sc_hd__ebufn_8 A TE_B VGND VNB VPB VPWR Z
.ends

* Black-box entry subcircuit for sky130_fd_sc_hd__sdfrtp_1 abstract view
.subckt sky130_fd_sc_hd__sdfrtp_1 CLK D RESET_B SCD SCE VGND VNB VPB VPWR Q
.ends

* Black-box entry subcircuit for sky130_fd_sc_hd__dfrtp_4 abstract view
.subckt sky130_fd_sc_hd__dfrtp_4 CLK D RESET_B VGND VNB VPB VPWR Q
.ends

* Black-box entry subcircuit for sky130_fd_sc_hd__mux2_8 abstract view
.subckt sky130_fd_sc_hd__mux2_8 A0 A1 S VGND VNB VPB VPWR X
.ends

* Black-box entry subcircuit for sky130_fd_sc_hd__dlymetal6s2s_1 abstract view
.subckt sky130_fd_sc_hd__dlymetal6s2s_1 A VGND VNB VPB VPWR X
.ends

* Black-box entry subcircuit for sky130_fd_sc_hd__buf_2 abstract view
.subckt sky130_fd_sc_hd__buf_2 A VGND VNB VPB VPWR X
.ends

* Black-box entry subcircuit for sky130_fd_sc_hd__mux2_4 abstract view
.subckt sky130_fd_sc_hd__mux2_4 A0 A1 S VGND VNB VPB VPWR X
.ends

* Black-box entry subcircuit for sky130_fd_sc_hd__clkbuf_4 abstract view
.subckt sky130_fd_sc_hd__clkbuf_4 A VGND VNB VPB VPWR X
.ends

* Black-box entry subcircuit for sky130_fd_sc_hd__or2b_1 abstract view
.subckt sky130_fd_sc_hd__or2b_1 A B_N VGND VNB VPB VPWR X
.ends

* Black-box entry subcircuit for sky130_fd_sc_hd__inv_1 abstract view
.subckt sky130_fd_sc_hd__inv_1 A VGND VNB VPB VPWR Y
.ends

* Black-box entry subcircuit for sky130_fd_sc_hd__ebufn_1 abstract view
.subckt sky130_fd_sc_hd__ebufn_1 A TE_B VGND VNB VPB VPWR Z
.ends

* Black-box entry subcircuit for sky130_fd_sc_hd__mux2_2 abstract view
.subckt sky130_fd_sc_hd__mux2_2 A0 A1 S VGND VNB VPB VPWR X
.ends

* Black-box entry subcircuit for sky130_fd_sc_hd__sdfrtp_2 abstract view
.subckt sky130_fd_sc_hd__sdfrtp_2 CLK D RESET_B SCD SCE VGND VNB VPB VPWR Q
.ends

.subckt right_tile VGND VPWR bottom_width_0_height_0_subtile_0__pin_cout_0_ bottom_width_0_height_0_subtile_0__pin_reg_out_0_
+ ccff_head_0_0 ccff_head_1 ccff_head_2 ccff_tail ccff_tail_0 ccff_tail_1 chanx_left_in[0]
+ chanx_left_in[10] chanx_left_in[11] chanx_left_in[12] chanx_left_in[13] chanx_left_in[14]
+ chanx_left_in[15] chanx_left_in[16] chanx_left_in[17] chanx_left_in[18] chanx_left_in[19]
+ chanx_left_in[1] chanx_left_in[20] chanx_left_in[21] chanx_left_in[22] chanx_left_in[23]
+ chanx_left_in[24] chanx_left_in[25] chanx_left_in[26] chanx_left_in[27] chanx_left_in[28]
+ chanx_left_in[29] chanx_left_in[2] chanx_left_in[3] chanx_left_in[4] chanx_left_in[5]
+ chanx_left_in[6] chanx_left_in[7] chanx_left_in[8] chanx_left_in[9] chanx_left_out[0]
+ chanx_left_out[10] chanx_left_out[11] chanx_left_out[12] chanx_left_out[13] chanx_left_out[14]
+ chanx_left_out[15] chanx_left_out[16] chanx_left_out[17] chanx_left_out[18] chanx_left_out[19]
+ chanx_left_out[1] chanx_left_out[20] chanx_left_out[21] chanx_left_out[22] chanx_left_out[23]
+ chanx_left_out[24] chanx_left_out[25] chanx_left_out[26] chanx_left_out[27] chanx_left_out[28]
+ chanx_left_out[29] chanx_left_out[2] chanx_left_out[3] chanx_left_out[4] chanx_left_out[5]
+ chanx_left_out[6] chanx_left_out[7] chanx_left_out[8] chanx_left_out[9] chany_bottom_in[0]
+ chany_bottom_in[10] chany_bottom_in[11] chany_bottom_in[12] chany_bottom_in[13]
+ chany_bottom_in[14] chany_bottom_in[15] chany_bottom_in[16] chany_bottom_in[17]
+ chany_bottom_in[18] chany_bottom_in[19] chany_bottom_in[1] chany_bottom_in[20] chany_bottom_in[21]
+ chany_bottom_in[22] chany_bottom_in[23] chany_bottom_in[24] chany_bottom_in[25]
+ chany_bottom_in[26] chany_bottom_in[27] chany_bottom_in[28] chany_bottom_in[29]
+ chany_bottom_in[2] chany_bottom_in[3] chany_bottom_in[4] chany_bottom_in[5] chany_bottom_in[6]
+ chany_bottom_in[7] chany_bottom_in[8] chany_bottom_in[9] chany_bottom_out[0] chany_bottom_out[10]
+ chany_bottom_out[11] chany_bottom_out[12] chany_bottom_out[13] chany_bottom_out[14]
+ chany_bottom_out[15] chany_bottom_out[16] chany_bottom_out[17] chany_bottom_out[18]
+ chany_bottom_out[19] chany_bottom_out[1] chany_bottom_out[20] chany_bottom_out[21]
+ chany_bottom_out[22] chany_bottom_out[23] chany_bottom_out[24] chany_bottom_out[25]
+ chany_bottom_out[26] chany_bottom_out[27] chany_bottom_out[28] chany_bottom_out[29]
+ chany_bottom_out[2] chany_bottom_out[3] chany_bottom_out[4] chany_bottom_out[5]
+ chany_bottom_out[6] chany_bottom_out[7] chany_bottom_out[8] chany_bottom_out[9]
+ chany_top_in_0[0] chany_top_in_0[10] chany_top_in_0[11] chany_top_in_0[12] chany_top_in_0[13]
+ chany_top_in_0[14] chany_top_in_0[15] chany_top_in_0[16] chany_top_in_0[17] chany_top_in_0[18]
+ chany_top_in_0[19] chany_top_in_0[1] chany_top_in_0[20] chany_top_in_0[21] chany_top_in_0[22]
+ chany_top_in_0[23] chany_top_in_0[24] chany_top_in_0[25] chany_top_in_0[26] chany_top_in_0[27]
+ chany_top_in_0[28] chany_top_in_0[29] chany_top_in_0[2] chany_top_in_0[3] chany_top_in_0[4]
+ chany_top_in_0[5] chany_top_in_0[6] chany_top_in_0[7] chany_top_in_0[8] chany_top_in_0[9]
+ chany_top_out_0[0] chany_top_out_0[10] chany_top_out_0[11] chany_top_out_0[12] chany_top_out_0[13]
+ chany_top_out_0[14] chany_top_out_0[15] chany_top_out_0[16] chany_top_out_0[17]
+ chany_top_out_0[18] chany_top_out_0[19] chany_top_out_0[1] chany_top_out_0[20] chany_top_out_0[21]
+ chany_top_out_0[22] chany_top_out_0[23] chany_top_out_0[24] chany_top_out_0[25]
+ chany_top_out_0[26] chany_top_out_0[27] chany_top_out_0[28] chany_top_out_0[29]
+ chany_top_out_0[2] chany_top_out_0[3] chany_top_out_0[4] chany_top_out_0[5] chany_top_out_0[6]
+ chany_top_out_0[7] chany_top_out_0[8] chany_top_out_0[9] clk0 gfpga_pad_io_soc_dir[0]
+ gfpga_pad_io_soc_dir[1] gfpga_pad_io_soc_dir[2] gfpga_pad_io_soc_dir[3] gfpga_pad_io_soc_in[0]
+ gfpga_pad_io_soc_in[1] gfpga_pad_io_soc_in[2] gfpga_pad_io_soc_in[3] gfpga_pad_io_soc_out[0]
+ gfpga_pad_io_soc_out[1] gfpga_pad_io_soc_out[2] gfpga_pad_io_soc_out[3] isol_n left_width_0_height_0_subtile_0__pin_inpad_0_
+ left_width_0_height_0_subtile_1__pin_inpad_0_ left_width_0_height_0_subtile_2__pin_inpad_0_
+ left_width_0_height_0_subtile_3__pin_inpad_0_ prog_clk prog_reset_bottom_in prog_reset_bottom_out
+ prog_reset_left_in prog_reset_top_in prog_reset_top_out reset_bottom_in reset_bottom_out
+ reset_left_out reset_right_in reset_top_in reset_top_out right_width_0_height_0_subtile_0__pin_O_10_
+ right_width_0_height_0_subtile_0__pin_O_11_ right_width_0_height_0_subtile_0__pin_O_12_
+ right_width_0_height_0_subtile_0__pin_O_13_ right_width_0_height_0_subtile_0__pin_O_14_
+ right_width_0_height_0_subtile_0__pin_O_15_ right_width_0_height_0_subtile_0__pin_O_8_
+ right_width_0_height_0_subtile_0__pin_O_9_ sc_in sc_out test_enable_bottom_in test_enable_bottom_out
+ test_enable_left_out test_enable_right_in test_enable_top_in test_enable_top_out
+ top_left_grid_right_width_0_height_0_subtile_0__pin_O_10_ top_left_grid_right_width_0_height_0_subtile_0__pin_O_11_
+ top_left_grid_right_width_0_height_0_subtile_0__pin_O_12_ top_left_grid_right_width_0_height_0_subtile_0__pin_O_13_
+ top_left_grid_right_width_0_height_0_subtile_0__pin_O_14_ top_left_grid_right_width_0_height_0_subtile_0__pin_O_15_
+ top_left_grid_right_width_0_height_0_subtile_0__pin_O_8_ top_left_grid_right_width_0_height_0_subtile_0__pin_O_9_
+ top_right_grid_left_width_0_height_0_subtile_0__pin_inpad_0_ top_right_grid_left_width_0_height_0_subtile_1__pin_inpad_0_
+ top_right_grid_left_width_0_height_0_subtile_2__pin_inpad_0_ top_right_grid_left_width_0_height_0_subtile_3__pin_inpad_0_
+ top_width_0_height_0_subtile_0__pin_O_0_ top_width_0_height_0_subtile_0__pin_O_1_
+ top_width_0_height_0_subtile_0__pin_O_2_ top_width_0_height_0_subtile_0__pin_O_3_
+ top_width_0_height_0_subtile_0__pin_O_4_ top_width_0_height_0_subtile_0__pin_O_5_
+ top_width_0_height_0_subtile_0__pin_O_6_ top_width_0_height_0_subtile_0__pin_O_7_
+ top_width_0_height_0_subtile_0__pin_cin_0_ top_width_0_height_0_subtile_0__pin_reg_in_0_
Xgrid_clb_8__1_.logical_tile_clb_mode_clb__0.logical_tile_clb_mode_default__fle_6.logical_tile_clb_mode_default__fle_mode_physical__fabric_0.logical_tile_clb_mode_default__fle_mode_physical__fabric_mode_default__frac_logic_0.mem_frac_lut4_0_in_2.sky130_fd_sc_hd__dfrtp_1_1_
+ clknet_leaf_46_prog_clk grid_clb_8__1_.logical_tile_clb_mode_clb__0.logical_tile_clb_mode_default__fle_6.logical_tile_clb_mode_default__fle_mode_physical__fabric_0.logical_tile_clb_mode_default__fle_mode_physical__fabric_mode_default__frac_logic_0.mem_frac_lut4_0_in_2.mem_out\[0\]
+ net247 VGND VGND VPWR VPWR grid_clb_8__1_.logical_tile_clb_mode_clb__0.logical_tile_clb_mode_default__fle_6.logical_tile_clb_mode_default__fle_mode_physical__fabric_0.logical_tile_clb_mode_default__fle_mode_physical__fabric_mode_default__frac_logic_0.ccff_tail
+ sky130_fd_sc_hd__dfrtp_1
XTAP_199 VGND VPWR sky130_fd_sc_hd__tapvpwrvgnd_1
Xcby_8__1_.cby_8__8_.mem_right_ipin_2.sky130_fd_sc_hd__dfrtp_1_2_ clknet_leaf_36_prog_clk
+ cby_8__1_.cby_8__8_.mem_right_ipin_2.mem_out\[1\] net247 VGND VGND VPWR VPWR cby_8__1_.cby_8__8_.mem_right_ipin_2.mem_out\[2\]
+ sky130_fd_sc_hd__dfrtp_1
XFILLER_39_233 VGND VGND VPWR VPWR sky130_fd_sc_hd__fill_2
XFILLER_39_244 VGND VGND VPWR VPWR sky130_ef_sc_hd__decap_12
XFILLER_94_383 VGND VGND VPWR VPWR sky130_ef_sc_hd__decap_12
XFILLER_82_523 VGND VGND VPWR VPWR sky130_fd_sc_hd__decap_4
XFILLER_54_214 VGND VGND VPWR VPWR sky130_fd_sc_hd__fill_1
XFILLER_54_236 VGND VGND VPWR VPWR sky130_fd_sc_hd__fill_1
Xcby_8__1_.cby_8__8_.mux_right_ipin_10.mux_l2_in_0_ cby_8__1_.cby_8__8_.mux_right_ipin_10.sky130_fd_sc_hd__mux2_1_1_X
+ cby_8__1_.cby_8__8_.mux_right_ipin_10.sky130_fd_sc_hd__mux2_1_0_X cby_8__1_.cby_8__8_.mem_right_ipin_10.mem_out\[1\]
+ VGND VGND VPWR VPWR cby_8__1_.cby_8__8_.mux_right_ipin_10.sky130_fd_sc_hd__mux2_1_5_X
+ sky130_fd_sc_hd__mux2_1
XFILLER_52_29 VGND VGND VPWR VPWR sky130_fd_sc_hd__fill_2
Xgrid_clb_8__1_.logical_tile_clb_mode_clb__0.logical_tile_clb_mode_default__fle_7.logical_tile_clb_mode_default__fle_mode_physical__fabric_0.mem_fabric_out_0.sky130_fd_sc_hd__dfrtp_1_1_
+ clknet_leaf_41_prog_clk grid_clb_8__1_.logical_tile_clb_mode_clb__0.logical_tile_clb_mode_default__fle_7.logical_tile_clb_mode_default__fle_mode_physical__fabric_0.mem_fabric_out_0.mem_out\[0\]
+ net248 VGND VGND VPWR VPWR grid_clb_8__1_.logical_tile_clb_mode_clb__0.logical_tile_clb_mode_default__fle_7.logical_tile_clb_mode_default__fle_mode_physical__fabric_0.mem_fabric_out_0.ccff_tail
+ sky130_fd_sc_hd__dfrtp_1
Xcby_8__1_.cby_8__8_.mux_right_ipin_6.sky130_fd_sc_hd__buf_4_0_ cby_8__1_.cby_8__8_.mux_right_ipin_6.sky130_fd_sc_hd__mux2_1_11_X
+ VGND VGND VPWR VPWR cby_8__1_.cby_8__8_.left_grid_right_width_0_height_0_subtile_0__pin_I5i_0_
+ sky130_fd_sc_hd__clkbuf_1
Xclkbuf_leaf_53_prog_clk clknet_3_0__leaf_prog_clk VGND VGND VPWR VPWR clknet_leaf_53_prog_clk
+ sky130_fd_sc_hd__clkbuf_16
Xgrid_clb_8__1_.logical_tile_clb_mode_clb__0.logical_tile_clb_mode_default__fle_5.logical_tile_clb_mode_default__fle_mode_physical__fabric_0.logical_tile_clb_mode_default__fle_mode_physical__fabric_mode_default__frac_logic_0.logical_tile_clb_mode_default__fle_mode_physical__fabric_mode_default__frac_logic_mode_default__frac_lut4_0.frac_lut4_0_.frac_lut4_mux_0_.mux_l2_in_2_
+ grid_clb_8__1_.logical_tile_clb_mode_clb__0.logical_tile_clb_mode_default__fle_5.logical_tile_clb_mode_default__fle_mode_physical__fabric_0.logical_tile_clb_mode_default__fle_mode_physical__fabric_mode_default__frac_logic_0.logical_tile_clb_mode_default__fle_mode_physical__fabric_mode_default__frac_logic_mode_default__frac_lut4_0.frac_lut4_0_.frac_lut4_mux_0_.sky130_fd_sc_hd__mux2_1_5_X
+ grid_clb_8__1_.logical_tile_clb_mode_clb__0.logical_tile_clb_mode_default__fle_5.logical_tile_clb_mode_default__fle_mode_physical__fabric_0.logical_tile_clb_mode_default__fle_mode_physical__fabric_mode_default__frac_logic_0.logical_tile_clb_mode_default__fle_mode_physical__fabric_mode_default__frac_logic_mode_default__frac_lut4_0.frac_lut4_0_.frac_lut4_mux_0_.sky130_fd_sc_hd__mux2_1_4_X
+ grid_clb_8__1_.logical_tile_clb_mode_clb__0.logical_tile_clb_mode_default__fle_5.logical_tile_clb_mode_default__fle_mode_physical__fabric_0.logical_tile_clb_mode_default__fle_mode_physical__fabric_mode_default__frac_logic_0.logical_tile_clb_mode_default__fle_mode_physical__fabric_mode_default__frac_logic_mode_default__frac_lut4_0.frac_lut4_0_.sky130_fd_sc_hd__buf_2_1_X
+ VGND VGND VPWR VPWR grid_clb_8__1_.logical_tile_clb_mode_clb__0.logical_tile_clb_mode_default__fle_5.logical_tile_clb_mode_default__fle_mode_physical__fabric_0.logical_tile_clb_mode_default__fle_mode_physical__fabric_mode_default__frac_logic_0.logical_tile_clb_mode_default__fle_mode_physical__fabric_mode_default__frac_logic_mode_default__frac_lut4_0.frac_lut4_0_.frac_lut4_mux_0_.sky130_fd_sc_hd__mux2_1_10_X
+ sky130_fd_sc_hd__mux2_1
XFILLER_77_306 VGND VGND VPWR VPWR sky130_fd_sc_hd__decap_4
XFILLER_92_309 VGND VGND VPWR VPWR sky130_fd_sc_hd__fill_2
XFILLER_73_501 VGND VGND VPWR VPWR sky130_fd_sc_hd__decap_3
XFILLER_45_225 VGND VGND VPWR VPWR sky130_ef_sc_hd__decap_12
Xgrid_clb_8__1_.logical_tile_clb_mode_clb__0.logical_tile_clb_mode_default__fle_4.logical_tile_clb_mode_default__fle_mode_physical__fabric_0.logical_tile_clb_mode_default__fle_mode_physical__fabric_mode_default__frac_logic_0.mux_frac_lut4_0_in_2.mux_l2_in_0_
+ net301 grid_clb_8__1_.logical_tile_clb_mode_clb__0.logical_tile_clb_mode_default__fle_4.logical_tile_clb_mode_default__fle_mode_physical__fabric_0.logical_tile_clb_mode_default__fle_mode_physical__fabric_mode_default__frac_logic_0.mux_frac_lut4_0_in_2.sky130_fd_sc_hd__mux2_1_0_X
+ grid_clb_8__1_.logical_tile_clb_mode_clb__0.logical_tile_clb_mode_default__fle_4.logical_tile_clb_mode_default__fle_mode_physical__fabric_0.logical_tile_clb_mode_default__fle_mode_physical__fabric_mode_default__frac_logic_0.ccff_tail
+ VGND VGND VPWR VPWR grid_clb_8__1_.logical_tile_clb_mode_clb__0.logical_tile_clb_mode_default__fle_4.logical_tile_clb_mode_default__fle_mode_physical__fabric_0.logical_tile_clb_mode_default__fle_mode_physical__fabric_mode_default__frac_logic_0.mux_frac_lut4_0_in_2.out
+ sky130_fd_sc_hd__mux2_1
XFILLER_26_41 VGND VGND VPWR VPWR sky130_fd_sc_hd__decap_8
Xsb_8__1_.mux_top_track_2.mux_l2_in_3_ net365 net32 sb_8__1_.mem_top_track_2.mem_out\[1\]
+ VGND VGND VPWR VPWR sb_8__1_.mux_top_track_2.sky130_fd_sc_hd__mux2_1_4_X sky130_fd_sc_hd__mux2_1
XFILLER_26_85 VGND VGND VPWR VPWR sky130_ef_sc_hd__decap_12
XFILLER_41_442 VGND VGND VPWR VPWR sky130_fd_sc_hd__decap_6
Xsb_8__1_.mem_top_track_2.sky130_fd_sc_hd__dfrtp_1_3_ clknet_leaf_20_prog_clk sb_8__1_.mem_top_track_2.mem_out\[2\]
+ net247 VGND VGND VPWR VPWR sb_8__1_.mem_top_track_2.ccff_tail sky130_fd_sc_hd__dfrtp_1
XFILLER_41_453 VGND VGND VPWR VPWR sky130_fd_sc_hd__fill_1
X_363_ cby_8__1_.grid_io_right_right_9__8_.logical_tile_io_mode_io__0.gfpga_pad_io_soc_out
+ VGND VGND VPWR VPWR net219 sky130_fd_sc_hd__clkbuf_1
X_294_ sb_8__1_.mux_left_track_3.out VGND VGND VPWR VPWR net142 sky130_fd_sc_hd__clkbuf_2
XFILLER_68_306 VGND VGND VPWR VPWR sky130_fd_sc_hd__fill_2
XFILLER_68_317 VGND VGND VPWR VPWR sky130_fd_sc_hd__fill_2
XFILLER_68_328 VGND VGND VPWR VPWR sky130_fd_sc_hd__decap_8
XFILLER_3_67 VGND VGND VPWR VPWR sky130_fd_sc_hd__fill_1
XFILLER_95_169 VGND VGND VPWR VPWR sky130_fd_sc_hd__decap_8
Xgrid_clb_8__1_.logical_tile_clb_mode_clb__0.logical_tile_clb_mode_default__fle_5.logical_tile_clb_mode_default__fle_mode_physical__fabric_0.logical_tile_clb_mode_default__fle_mode_physical__fabric_mode_default__frac_logic_0.logical_tile_clb_mode_default__fle_mode_physical__fabric_mode_default__frac_logic_mode_default__frac_lut4_0.frac_lut4_0_.sky130_fd_sc_hd__buf_2_3_
+ grid_clb_8__1_.logical_tile_clb_mode_clb__0.logical_tile_clb_mode_default__fle_5.logical_tile_clb_mode_default__fle_mode_physical__fabric_0.logical_tile_clb_mode_default__fle_mode_physical__fabric_mode_default__frac_logic_0.logical_tile_clb_mode_default__fle_mode_physical__fabric_mode_default__frac_logic_mode_default__frac_lut4_0.frac_lut4_0_.sky130_fd_sc_hd__or2_1_0_X
+ VGND VGND VPWR VPWR grid_clb_8__1_.logical_tile_clb_mode_clb__0.logical_tile_clb_mode_default__fle_5.logical_tile_clb_mode_default__fle_mode_physical__fabric_0.logical_tile_clb_mode_default__fle_mode_physical__fabric_mode_default__frac_logic_0.logical_tile_clb_mode_default__fle_mode_physical__fabric_mode_default__frac_logic_mode_default__frac_lut4_0.frac_lut4_0_.sky130_fd_sc_hd__buf_2_3_X
+ sky130_fd_sc_hd__clkbuf_1
XFILLER_64_523 VGND VGND VPWR VPWR sky130_fd_sc_hd__decap_4
XFILLER_91_386 VGND VGND VPWR VPWR sky130_fd_sc_hd__decap_6
XFILLER_17_461 VGND VGND VPWR VPWR sky130_fd_sc_hd__decap_3
XFILLER_51_206 VGND VGND VPWR VPWR sky130_fd_sc_hd__fill_1
Xsb_8__1_.mux_left_track_35.mux_l1_in_1__349 VGND VGND VPWR VPWR sb_8__1_.mux_left_track_35.mux_l1_in_1__349/HI
+ net349 sky130_fd_sc_hd__conb_1
Xgrid_clb_8__1_.logical_tile_clb_mode_clb__0.logical_tile_clb_mode_default__fle_5.logical_tile_clb_mode_default__fle_mode_physical__fabric_0.mux_ff_1_D_0.mux_l2_in_0__311
+ VGND VGND VPWR VPWR grid_clb_8__1_.logical_tile_clb_mode_clb__0.logical_tile_clb_mode_default__fle_5.logical_tile_clb_mode_default__fle_mode_physical__fabric_0.mux_ff_1_D_0.mux_l2_in_0__311/HI
+ net311 sky130_fd_sc_hd__conb_1
Xsb_8__1_.mux_bottom_track_13.mux_l1_in_2_ net7 net19 sb_8__1_.mem_bottom_track_13.mem_out\[0\]
+ VGND VGND VPWR VPWR sb_8__1_.mux_bottom_track_13.sky130_fd_sc_hd__mux2_1_2_X sky130_fd_sc_hd__mux2_1
XFILLER_86_103 VGND VGND VPWR VPWR sky130_ef_sc_hd__decap_12
XFILLER_74_309 VGND VGND VPWR VPWR sky130_fd_sc_hd__decap_6
Xcby_8__1_.cby_8__8_.mux_left_ipin_2.mux_l2_in_1_ cby_8__1_.cby_8__8_.mux_left_ipin_2.sky130_fd_sc_hd__mux2_1_3_X
+ cby_8__1_.cby_8__8_.mux_left_ipin_2.sky130_fd_sc_hd__mux2_1_2_X cby_8__1_.cby_8__8_.mem_left_ipin_2.mem_out\[1\]
+ VGND VGND VPWR VPWR cby_8__1_.cby_8__8_.mux_left_ipin_2.sky130_fd_sc_hd__mux2_1_6_X
+ sky130_fd_sc_hd__mux2_1
XFILLER_47_29 VGND VGND VPWR VPWR sky130_fd_sc_hd__fill_1
XFILLER_82_320 VGND VGND VPWR VPWR sky130_ef_sc_hd__decap_12
XFILLER_27_225 VGND VGND VPWR VPWR sky130_fd_sc_hd__decap_4
Xgrid_clb_8__1_.logical_tile_clb_mode_clb__0.logical_tile_clb_mode_default__fle_4.logical_tile_clb_mode_default__fle_mode_physical__fabric_0.mux_ff_1_D_0.mux_l2_in_0_
+ net305 grid_clb_8__1_.logical_tile_clb_mode_clb__0.logical_tile_clb_mode_default__fle_4.logical_tile_clb_mode_default__fle_mode_physical__fabric_0.mux_ff_1_D_0.sky130_fd_sc_hd__mux2_1_0_X
+ grid_clb_8__1_.logical_tile_clb_mode_clb__0.logical_tile_clb_mode_default__fle_4.ccff_tail
+ VGND VGND VPWR VPWR grid_clb_8__1_.logical_tile_clb_mode_clb__0.logical_tile_clb_mode_default__fle_4.logical_tile_clb_mode_default__fle_mode_physical__fabric_0.logical_tile_clb_mode_default__fle_mode_physical__fabric_mode_default__ff_1.ff_D
+ sky130_fd_sc_hd__mux2_1
XFILLER_42_217 VGND VGND VPWR VPWR sky130_fd_sc_hd__decap_3
XFILLER_70_526 VGND VGND VPWR VPWR sky130_fd_sc_hd__fill_1
Xsb_8__1_.mem_left_track_23.sky130_fd_sc_hd__dfrtp_1_0_ clknet_leaf_57_prog_clk sb_8__1_.mem_left_track_21.ccff_tail
+ net246 VGND VGND VPWR VPWR sb_8__1_.mem_left_track_23.mem_out\[0\] sky130_fd_sc_hd__dfrtp_1
XFILLER_23_442 VGND VGND VPWR VPWR sky130_fd_sc_hd__fill_1
XFILLER_50_250 VGND VGND VPWR VPWR sky130_fd_sc_hd__fill_2
XFILLER_50_283 VGND VGND VPWR VPWR sky130_fd_sc_hd__fill_2
XFILLER_12_21 VGND VGND VPWR VPWR sky130_fd_sc_hd__decap_6
Xsb_8__1_.mem_bottom_track_1.sky130_fd_sc_hd__dfrtp_1_2_ clknet_leaf_50_prog_clk sb_8__1_.mem_bottom_track_1.mem_out\[1\]
+ net245 VGND VGND VPWR VPWR sb_8__1_.mem_bottom_track_1.mem_out\[2\] sky130_fd_sc_hd__dfrtp_1
XFILLER_12_76 VGND VGND VPWR VPWR sky130_fd_sc_hd__decap_8
XFILLER_12_98 VGND VGND VPWR VPWR sky130_fd_sc_hd__decap_4
Xgrid_clb_8__1_.logical_tile_clb_mode_clb__0.logical_tile_clb_mode_default__fle_5.logical_tile_clb_mode_default__fle_mode_physical__fabric_0.logical_tile_clb_mode_default__fle_mode_physical__fabric_mode_default__frac_logic_0.logical_tile_clb_mode_default__fle_mode_physical__fabric_mode_default__frac_logic_mode_default__frac_lut4_0.frac_lut4_sky130_fd_sc_hd__dfrtp_1_mem.sky130_fd_sc_hd__dfrtp_1_5_
+ clknet_leaf_38_prog_clk grid_clb_8__1_.logical_tile_clb_mode_clb__0.logical_tile_clb_mode_default__fle_5.logical_tile_clb_mode_default__fle_mode_physical__fabric_0.logical_tile_clb_mode_default__fle_mode_physical__fabric_mode_default__frac_logic_0.logical_tile_clb_mode_default__fle_mode_physical__fabric_mode_default__frac_logic_mode_default__frac_lut4_0.frac_lut4_0_.frac_lut4_mux_0_.in\[4\]
+ net248 VGND VGND VPWR VPWR grid_clb_8__1_.logical_tile_clb_mode_clb__0.logical_tile_clb_mode_default__fle_5.logical_tile_clb_mode_default__fle_mode_physical__fabric_0.logical_tile_clb_mode_default__fle_mode_physical__fabric_mode_default__frac_logic_0.logical_tile_clb_mode_default__fle_mode_physical__fabric_mode_default__frac_logic_mode_default__frac_lut4_0.frac_lut4_0_.frac_lut4_mux_0_.in\[5\]
+ sky130_fd_sc_hd__dfrtp_1
XFILLER_77_136 VGND VGND VPWR VPWR sky130_fd_sc_hd__fill_1
XFILLER_77_169 VGND VGND VPWR VPWR sky130_fd_sc_hd__decap_8
XFILLER_92_117 VGND VGND VPWR VPWR sky130_fd_sc_hd__decap_4
Xgrid_clb_8__1_.logical_tile_clb_mode_clb__0.logical_tile_clb_mode_default__fle_5.logical_tile_clb_mode_default__fle_mode_physical__fabric_0.mem_fabric_out_0.sky130_fd_sc_hd__dfrtp_1_0_
+ clknet_leaf_37_prog_clk grid_clb_8__1_.logical_tile_clb_mode_clb__0.logical_tile_clb_mode_default__fle_5.logical_tile_clb_mode_default__fle_mode_physical__fabric_0.logical_tile_clb_mode_default__fle_mode_physical__fabric_mode_default__frac_logic_0.ccff_tail
+ net248 VGND VGND VPWR VPWR grid_clb_8__1_.logical_tile_clb_mode_clb__0.logical_tile_clb_mode_default__fle_5.logical_tile_clb_mode_default__fle_mode_physical__fabric_0.mem_fabric_out_0.mem_out\[0\]
+ sky130_fd_sc_hd__dfrtp_1
Xcbx_8__1_.mux_top_ipin_10.mux_l2_in_1_ cbx_8__1_.mux_top_ipin_10.sky130_fd_sc_hd__mux2_1_3_X
+ cbx_8__1_.mux_top_ipin_10.sky130_fd_sc_hd__mux2_1_2_X cbx_8__1_.mem_top_ipin_10.mem_out\[1\]
+ VGND VGND VPWR VPWR cbx_8__1_.mux_top_ipin_10.sky130_fd_sc_hd__mux2_1_6_X sky130_fd_sc_hd__mux2_1
XFILLER_26_291 VGND VGND VPWR VPWR sky130_fd_sc_hd__decap_4
X_346_ net47 VGND VGND VPWR VPWR net194 sky130_fd_sc_hd__clkbuf_2
XFILLER_41_261 VGND VGND VPWR VPWR sky130_fd_sc_hd__decap_8
X_277_ sb_8__1_.mux_left_track_37.out VGND VGND VPWR VPWR net124 sky130_fd_sc_hd__clkbuf_1
XFILLER_5_140 VGND VGND VPWR VPWR sky130_fd_sc_hd__decap_4
Xcby_8__1_.cby_8__8_.mux_right_ipin_10.mux_l1_in_1_ sb_8__1_.mux_bottom_track_11.out
+ net50 cby_8__1_.cby_8__8_.mem_right_ipin_10.mem_out\[0\] VGND VGND VPWR VPWR cby_8__1_.cby_8__8_.mux_right_ipin_10.sky130_fd_sc_hd__mux2_1_1_X
+ sky130_fd_sc_hd__mux2_1
XFILLER_78_91 VGND VGND VPWR VPWR sky130_fd_sc_hd__decap_4
XFILLER_68_114 VGND VGND VPWR VPWR sky130_fd_sc_hd__decap_3
Xgrid_clb_8__1_.logical_tile_clb_mode_clb__0.logical_tile_clb_mode_default__fle_5.logical_tile_clb_mode_default__fle_mode_physical__fabric_0.logical_tile_clb_mode_default__fle_mode_physical__fabric_mode_default__frac_logic_0.logical_tile_clb_mode_default__fle_mode_physical__fabric_mode_default__frac_logic_mode_default__frac_lut4_0.frac_lut4_sky130_fd_sc_hd__dfrtp_1_mem.sky130_fd_sc_hd__dfrtp_1_14_
+ clknet_leaf_39_prog_clk grid_clb_8__1_.logical_tile_clb_mode_clb__0.logical_tile_clb_mode_default__fle_5.logical_tile_clb_mode_default__fle_mode_physical__fabric_0.logical_tile_clb_mode_default__fle_mode_physical__fabric_mode_default__frac_logic_0.logical_tile_clb_mode_default__fle_mode_physical__fabric_mode_default__frac_logic_mode_default__frac_lut4_0.frac_lut4_0_.frac_lut4_mux_0_.in\[13\]
+ net248 VGND VGND VPWR VPWR grid_clb_8__1_.logical_tile_clb_mode_clb__0.logical_tile_clb_mode_default__fle_5.logical_tile_clb_mode_default__fle_mode_physical__fabric_0.logical_tile_clb_mode_default__fle_mode_physical__fabric_mode_default__frac_logic_0.logical_tile_clb_mode_default__fle_mode_physical__fabric_mode_default__frac_logic_mode_default__frac_lut4_0.frac_lut4_0_.frac_lut4_mux_0_.in\[14\]
+ sky130_fd_sc_hd__dfrtp_1
XFILLER_56_309 VGND VGND VPWR VPWR sky130_ef_sc_hd__decap_12
XFILLER_68_147 VGND VGND VPWR VPWR sky130_fd_sc_hd__fill_1
Xgrid_clb_8__1_.logical_tile_clb_mode_clb__0.logical_tile_clb_mode_default__fle_5.logical_tile_clb_mode_default__fle_mode_physical__fabric_0.logical_tile_clb_mode_default__fle_mode_physical__fabric_mode_default__frac_logic_0.logical_tile_clb_mode_default__fle_mode_physical__fabric_mode_default__frac_logic_mode_default__frac_lut4_0.frac_lut4_0_.frac_lut4_mux_0_.mux_l1_in_3_
+ grid_clb_8__1_.logical_tile_clb_mode_clb__0.logical_tile_clb_mode_default__fle_5.logical_tile_clb_mode_default__fle_mode_physical__fabric_0.logical_tile_clb_mode_default__fle_mode_physical__fabric_mode_default__frac_logic_0.logical_tile_clb_mode_default__fle_mode_physical__fabric_mode_default__frac_logic_mode_default__frac_lut4_0.frac_lut4_0_.frac_lut4_mux_0_.in\[7\]
+ grid_clb_8__1_.logical_tile_clb_mode_clb__0.logical_tile_clb_mode_default__fle_5.logical_tile_clb_mode_default__fle_mode_physical__fabric_0.logical_tile_clb_mode_default__fle_mode_physical__fabric_mode_default__frac_logic_0.logical_tile_clb_mode_default__fle_mode_physical__fabric_mode_default__frac_logic_mode_default__frac_lut4_0.frac_lut4_0_.frac_lut4_mux_0_.in\[6\]
+ grid_clb_8__1_.logical_tile_clb_mode_clb__0.logical_tile_clb_mode_default__fle_5.logical_tile_clb_mode_default__fle_mode_physical__fabric_0.logical_tile_clb_mode_default__fle_mode_physical__fabric_mode_default__frac_logic_0.logical_tile_clb_mode_default__fle_mode_physical__fabric_mode_default__frac_logic_mode_default__frac_lut4_0.frac_lut4_0_.sky130_fd_sc_hd__buf_2_0_X
+ VGND VGND VPWR VPWR grid_clb_8__1_.logical_tile_clb_mode_clb__0.logical_tile_clb_mode_default__fle_5.logical_tile_clb_mode_default__fle_mode_physical__fabric_0.logical_tile_clb_mode_default__fle_mode_physical__fabric_mode_default__frac_logic_0.logical_tile_clb_mode_default__fle_mode_physical__fabric_mode_default__frac_logic_mode_default__frac_lut4_0.frac_lut4_0_.frac_lut4_mux_0_.sky130_fd_sc_hd__mux2_1_3_X
+ sky130_fd_sc_hd__mux2_1
Xsb_8__1_.mem_top_track_36.sky130_fd_sc_hd__dfrtp_1_2_ clknet_leaf_16_prog_clk sb_8__1_.mem_top_track_36.mem_out\[1\]
+ net245 VGND VGND VPWR VPWR sb_8__1_.mem_top_track_36.ccff_tail sky130_fd_sc_hd__dfrtp_1
XFILLER_20_489 VGND VGND VPWR VPWR sky130_fd_sc_hd__decap_4
Xoutput242 net242 VGND VGND VPWR VPWR top_width_0_height_0_subtile_0__pin_O_5_ sky130_fd_sc_hd__buf_12
Xoutput231 net231 VGND VGND VPWR VPWR right_width_0_height_0_subtile_0__pin_O_8_ sky130_fd_sc_hd__buf_12
Xoutput220 net220 VGND VGND VPWR VPWR prog_reset_bottom_out sky130_fd_sc_hd__buf_12
XFILLER_87_434 VGND VGND VPWR VPWR sky130_fd_sc_hd__fill_2
XFILLER_59_169 VGND VGND VPWR VPWR sky130_fd_sc_hd__decap_6
XFILLER_28_523 VGND VGND VPWR VPWR sky130_fd_sc_hd__decap_4
XFILLER_74_27 VGND VGND VPWR VPWR sky130_fd_sc_hd__fill_1
XFILLER_55_353 VGND VGND VPWR VPWR sky130_fd_sc_hd__fill_1
XFILLER_55_386 VGND VGND VPWR VPWR sky130_fd_sc_hd__decap_6
XFILLER_90_37 VGND VGND VPWR VPWR sky130_fd_sc_hd__fill_1
XFILLER_90_26 VGND VGND VPWR VPWR sky130_fd_sc_hd__fill_2
Xcby_8__1_.cby_8__8_.mem_right_ipin_8.sky130_fd_sc_hd__dfrtp_1_3_ clknet_leaf_47_prog_clk
+ cby_8__1_.cby_8__8_.mem_right_ipin_8.mem_out\[2\] net99 VGND VGND VPWR VPWR cby_8__1_.cby_8__8_.mem_right_ipin_8.ccff_tail
+ sky130_fd_sc_hd__dfrtp_1
XFILLER_70_356 VGND VGND VPWR VPWR sky130_fd_sc_hd__decap_8