* NGSPICE file created from sb_0__2_.ext - technology: sky130A

* Black-box entry subcircuit for sky130_fd_sc_hd__decap_12 abstract view
.subckt sky130_fd_sc_hd__decap_12 VGND VNB VPB VPWR
.ends

* Black-box entry subcircuit for sky130_fd_sc_hd__decap_8 abstract view
.subckt sky130_fd_sc_hd__decap_8 VGND VNB VPB VPWR
.ends

* Black-box entry subcircuit for sky130_fd_sc_hd__dfxtp_1 abstract view
.subckt sky130_fd_sc_hd__dfxtp_1 CLK D VGND VNB VPB VPWR Q
.ends

* Black-box entry subcircuit for sky130_fd_sc_hd__clkbuf_1 abstract view
.subckt sky130_fd_sc_hd__clkbuf_1 A VGND VNB VPB VPWR X
.ends

* Black-box entry subcircuit for sky130_fd_sc_hd__fill_2 abstract view
.subckt sky130_fd_sc_hd__fill_2 VGND VNB VPB VPWR
.ends

* Black-box entry subcircuit for sky130_fd_sc_hd__diode_2 abstract view
.subckt sky130_fd_sc_hd__diode_2 DIODE VGND VNB VPB VPWR
.ends

* Black-box entry subcircuit for sky130_fd_sc_hd__decap_4 abstract view
.subckt sky130_fd_sc_hd__decap_4 VGND VNB VPB VPWR
.ends

* Black-box entry subcircuit for sky130_fd_sc_hd__clkbuf_2 abstract view
.subckt sky130_fd_sc_hd__clkbuf_2 A VGND VNB VPB VPWR X
.ends

* Black-box entry subcircuit for sky130_fd_sc_hd__tapvpwrvgnd_1 abstract view
.subckt sky130_fd_sc_hd__tapvpwrvgnd_1 VGND VPWR
.ends

* Black-box entry subcircuit for sky130_fd_sc_hd__mux2_1 abstract view
.subckt sky130_fd_sc_hd__mux2_1 A0 A1 S VGND VNB VPB VPWR X
.ends

* Black-box entry subcircuit for sky130_fd_sc_hd__fill_1 abstract view
.subckt sky130_fd_sc_hd__fill_1 VGND VNB VPB VPWR
.ends

* Black-box entry subcircuit for sky130_fd_sc_hd__buf_1 abstract view
.subckt sky130_fd_sc_hd__buf_1 A VGND VNB VPB VPWR X
.ends

* Black-box entry subcircuit for sky130_fd_sc_hd__decap_6 abstract view
.subckt sky130_fd_sc_hd__decap_6 VGND VNB VPB VPWR
.ends

* Black-box entry subcircuit for sky130_fd_sc_hd__decap_3 abstract view
.subckt sky130_fd_sc_hd__decap_3 VGND VNB VPB VPWR
.ends

* Black-box entry subcircuit for sky130_fd_sc_hd__conb_1 abstract view
.subckt sky130_fd_sc_hd__conb_1 VGND VNB VPB VPWR HI LO
.ends

* Black-box entry subcircuit for sky130_fd_sc_hd__buf_2 abstract view
.subckt sky130_fd_sc_hd__buf_2 A VGND VNB VPB VPWR X
.ends

* Black-box entry subcircuit for sky130_fd_sc_hd__buf_8 abstract view
.subckt sky130_fd_sc_hd__buf_8 A VGND VNB VPB VPWR X
.ends

* Black-box entry subcircuit for sky130_fd_sc_hd__dlymetal6s2s_1 abstract view
.subckt sky130_fd_sc_hd__dlymetal6s2s_1 A VGND VNB VPB VPWR X
.ends

* Black-box entry subcircuit for sky130_fd_sc_hd__dlygate4sd3_1 abstract view
.subckt sky130_fd_sc_hd__dlygate4sd3_1 A VGND VNB VPB VPWR X
.ends

* Black-box entry subcircuit for sky130_fd_sc_hd__clkbuf_16 abstract view
.subckt sky130_fd_sc_hd__clkbuf_16 A VGND VNB VPB VPWR X
.ends

* Black-box entry subcircuit for sky130_fd_sc_hd__dfxtp_2 abstract view
.subckt sky130_fd_sc_hd__dfxtp_2 CLK D VGND VNB VPB VPWR Q
.ends

* Black-box entry subcircuit for sky130_fd_sc_hd__dlygate4sd1_1 abstract view
.subckt sky130_fd_sc_hd__dlygate4sd1_1 A VGND VNB VPB VPWR X
.ends

.subckt sb_0__2_ SC_IN_TOP SC_OUT_BOT bottom_left_grid_pin_1_ ccff_head ccff_tail
+ chanx_right_in[0] chanx_right_in[10] chanx_right_in[11] chanx_right_in[12] chanx_right_in[13]
+ chanx_right_in[14] chanx_right_in[15] chanx_right_in[16] chanx_right_in[17] chanx_right_in[18]
+ chanx_right_in[19] chanx_right_in[1] chanx_right_in[2] chanx_right_in[3] chanx_right_in[4]
+ chanx_right_in[5] chanx_right_in[6] chanx_right_in[7] chanx_right_in[8] chanx_right_in[9]
+ chanx_right_out[0] chanx_right_out[10] chanx_right_out[11] chanx_right_out[12] chanx_right_out[13]
+ chanx_right_out[14] chanx_right_out[15] chanx_right_out[16] chanx_right_out[17]
+ chanx_right_out[18] chanx_right_out[19] chanx_right_out[1] chanx_right_out[2] chanx_right_out[3]
+ chanx_right_out[4] chanx_right_out[5] chanx_right_out[6] chanx_right_out[7] chanx_right_out[8]
+ chanx_right_out[9] chany_bottom_in[0] chany_bottom_in[10] chany_bottom_in[11] chany_bottom_in[12]
+ chany_bottom_in[13] chany_bottom_in[14] chany_bottom_in[15] chany_bottom_in[16]
+ chany_bottom_in[17] chany_bottom_in[18] chany_bottom_in[19] chany_bottom_in[1] chany_bottom_in[2]
+ chany_bottom_in[3] chany_bottom_in[4] chany_bottom_in[5] chany_bottom_in[6] chany_bottom_in[7]
+ chany_bottom_in[8] chany_bottom_in[9] chany_bottom_out[0] chany_bottom_out[10] chany_bottom_out[11]
+ chany_bottom_out[12] chany_bottom_out[13] chany_bottom_out[14] chany_bottom_out[15]
+ chany_bottom_out[16] chany_bottom_out[17] chany_bottom_out[18] chany_bottom_out[19]
+ chany_bottom_out[1] chany_bottom_out[2] chany_bottom_out[3] chany_bottom_out[4]
+ chany_bottom_out[5] chany_bottom_out[6] chany_bottom_out[7] chany_bottom_out[8]
+ chany_bottom_out[9] prog_clk_0_E_in right_bottom_grid_pin_34_ right_bottom_grid_pin_35_
+ right_bottom_grid_pin_36_ right_bottom_grid_pin_37_ right_bottom_grid_pin_38_ right_bottom_grid_pin_39_
+ right_bottom_grid_pin_40_ right_bottom_grid_pin_41_ right_top_grid_pin_1_ VPWR VGND
XFILLER_22_144 VGND VGND VPWR VPWR sky130_fd_sc_hd__decap_12
XFILLER_22_133 VGND VGND VPWR VPWR sky130_fd_sc_hd__decap_8
Xmem_right_track_20.sky130_fd_sc_hd__dfxtp_1_1_ clkbuf_2_3_0_mem_bottom_track_1.prog_clk/X
+ mux_right_track_20.mux_l1_in_0_/S VGND VGND VPWR VPWR mux_right_track_20.mux_l2_in_0_/S
+ sky130_fd_sc_hd__dfxtp_1
Xmem_right_track_2.sky130_fd_sc_hd__dfxtp_1_0_ clkbuf_2_2_0_mem_bottom_track_1.prog_clk/X
+ mux_right_track_0.mux_l3_in_0_/S VGND VGND VPWR VPWR mux_right_track_2.mux_l1_in_1_/S
+ sky130_fd_sc_hd__dfxtp_1
XFILLER_26_30 VGND VGND VPWR VPWR sky130_fd_sc_hd__decap_12
X_83_ _83_/A VGND VGND VPWR VPWR _83_/X sky130_fd_sc_hd__clkbuf_1
XFILLER_13_144 VGND VGND VPWR VPWR sky130_fd_sc_hd__fill_2
XFILLER_9_148 VGND VGND VPWR VPWR sky130_fd_sc_hd__fill_2
XFILLER_9_126 VGND VGND VPWR VPWR sky130_fd_sc_hd__fill_2
XFILLER_9_115 VGND VGND VPWR VPWR sky130_fd_sc_hd__fill_2
XFILLER_3_89 VGND VGND VPWR VPWR sky130_fd_sc_hd__fill_2
XFILLER_8_170 VGND VGND VPWR VPWR sky130_fd_sc_hd__fill_2
XFILLER_12_98 VGND VGND VPWR VPWR sky130_fd_sc_hd__fill_2
XFILLER_12_87 VGND VGND VPWR VPWR sky130_fd_sc_hd__fill_2
XFILLER_12_54 VGND VGND VPWR VPWR sky130_fd_sc_hd__decap_12
X_66_ _66_/A VGND VGND VPWR VPWR _66_/X sky130_fd_sc_hd__clkbuf_1
XFILLER_5_184 VGND VGND VPWR VPWR sky130_fd_sc_hd__fill_2
Xmux_right_track_36.sky130_fd_sc_hd__buf_4_0_ mux_right_track_36.mux_l2_in_0_/X VGND
+ VGND VPWR VPWR _67_/A sky130_fd_sc_hd__clkbuf_1
XANTENNA_mux_right_track_4.mux_l1_in_0__A1 input52/X VGND VGND VPWR VPWR sky130_fd_sc_hd__diode_2
XFILLER_17_9 VGND VGND VPWR VPWR sky130_fd_sc_hd__fill_2
XFILLER_0_46 VGND VGND VPWR VPWR sky130_fd_sc_hd__fill_2
XFILLER_0_35 VGND VGND VPWR VPWR sky130_fd_sc_hd__fill_2
XFILLER_0_24 VGND VGND VPWR VPWR sky130_fd_sc_hd__decap_4
Xmem_right_track_8.sky130_fd_sc_hd__dfxtp_1_1_ clkbuf_2_0_0_mem_bottom_track_1.prog_clk/X
+ mux_right_track_8.mux_l1_in_1_/S VGND VGND VPWR VPWR mux_right_track_8.mux_l2_in_0_/S
+ sky130_fd_sc_hd__dfxtp_1
X_49_ _49_/A VGND VGND VPWR VPWR _49_/X sky130_fd_sc_hd__clkbuf_1
XFILLER_18_42 VGND VGND VPWR VPWR sky130_fd_sc_hd__decap_12
XFILLER_20_87 VGND VGND VPWR VPWR sky130_fd_sc_hd__decap_12
XFILLER_20_54 VGND VGND VPWR VPWR sky130_fd_sc_hd__decap_12
XANTENNA_input18_A chanx_right_in[4] VGND VGND VPWR VPWR sky130_fd_sc_hd__diode_2
XFILLER_19_194 VGND VGND VPWR VPWR sky130_fd_sc_hd__fill_2
XFILLER_19_172 VGND VGND VPWR VPWR sky130_fd_sc_hd__fill_2
XFILLER_13_3 VGND VGND VPWR VPWR sky130_fd_sc_hd__decap_12
XANTENNA_output86_A _70_/X VGND VGND VPWR VPWR sky130_fd_sc_hd__diode_2
Xoutput64 _67_/X VGND VGND VPWR VPWR chanx_right_out[18] sky130_fd_sc_hd__clkbuf_2
XPHY_192 VGND VPWR sky130_fd_sc_hd__tapvpwrvgnd_1
XFILLER_31_123 VGND VGND VPWR VPWR sky130_fd_sc_hd__fill_2
XFILLER_31_112 VGND VGND VPWR VPWR sky130_fd_sc_hd__fill_2
XPHY_181 VGND VPWR sky130_fd_sc_hd__tapvpwrvgnd_1
XFILLER_31_64 VGND VGND VPWR VPWR sky130_fd_sc_hd__decap_12
XPHY_170 VGND VPWR sky130_fd_sc_hd__tapvpwrvgnd_1
Xmux_right_track_38.mux_l1_in_0_ input34/X input50/X mux_right_track_38.mux_l1_in_0_/S
+ VGND VGND VPWR VPWR mux_right_track_38.mux_l1_in_0_/X sky130_fd_sc_hd__mux2_1
XFILLER_16_131 VGND VGND VPWR VPWR sky130_fd_sc_hd__fill_1
Xoutput75 _69_/X VGND VGND VPWR VPWR chany_bottom_out[0] sky130_fd_sc_hd__clkbuf_2
Xoutput86 _70_/X VGND VGND VPWR VPWR chany_bottom_out[1] sky130_fd_sc_hd__clkbuf_2
Xoutput53 _48_/X VGND VGND VPWR VPWR SC_OUT_BOT sky130_fd_sc_hd__clkbuf_2
XFILLER_22_156 VGND VGND VPWR VPWR sky130_fd_sc_hd__decap_12
Xmem_right_track_20.sky130_fd_sc_hd__dfxtp_1_0_ clkbuf_2_3_0_mem_bottom_track_1.prog_clk/X
+ mux_right_track_18.mux_l2_in_0_/S VGND VGND VPWR VPWR mux_right_track_20.mux_l1_in_0_/S
+ sky130_fd_sc_hd__dfxtp_1
XFILLER_26_42 VGND VGND VPWR VPWR sky130_fd_sc_hd__decap_12
XFILLER_13_167 VGND VGND VPWR VPWR sky130_fd_sc_hd__decap_4
XFILLER_13_112 VGND VGND VPWR VPWR sky130_fd_sc_hd__fill_2
XFILLER_3_35 VGND VGND VPWR VPWR sky130_fd_sc_hd__fill_1
XFILLER_27_215 VGND VGND VPWR VPWR sky130_fd_sc_hd__fill_2
XFILLER_27_204 VGND VGND VPWR VPWR sky130_fd_sc_hd__fill_2
X_82_ _82_/A VGND VGND VPWR VPWR _82_/X sky130_fd_sc_hd__clkbuf_1
Xclkbuf_1_0_0_mem_bottom_track_1.prog_clk clkbuf_0_mem_bottom_track_1.prog_clk/X VGND
+ VGND VPWR VPWR clkbuf_2_1_0_mem_bottom_track_1.prog_clk/A sky130_fd_sc_hd__clkbuf_1
XFILLER_12_66 VGND VGND VPWR VPWR sky130_fd_sc_hd__decap_12
X_65_ _65_/A VGND VGND VPWR VPWR _65_/X sky130_fd_sc_hd__buf_1
XFILLER_5_196 VGND VGND VPWR VPWR sky130_fd_sc_hd__decap_4
XFILLER_15_218 VGND VGND VPWR VPWR sky130_fd_sc_hd__decap_4
XFILLER_9_78 VGND VGND VPWR VPWR sky130_fd_sc_hd__fill_1
XANTENNA_input48_A right_bottom_grid_pin_38_ VGND VGND VPWR VPWR sky130_fd_sc_hd__diode_2
Xmem_right_track_8.sky130_fd_sc_hd__dfxtp_1_0_ clkbuf_2_0_0_mem_bottom_track_1.prog_clk/X
+ mux_right_track_6.mux_l3_in_0_/S VGND VGND VPWR VPWR mux_right_track_8.mux_l1_in_1_/S
+ sky130_fd_sc_hd__dfxtp_1
XFILLER_0_69 VGND VGND VPWR VPWR sky130_fd_sc_hd__decap_4
XFILLER_0_14 VGND VGND VPWR VPWR sky130_fd_sc_hd__fill_2
XFILLER_2_144 VGND VGND VPWR VPWR sky130_fd_sc_hd__fill_2
XFILLER_2_166 VGND VGND VPWR VPWR sky130_fd_sc_hd__fill_2
Xmem_right_track_26.sky130_fd_sc_hd__dfxtp_1_1_ clkbuf_2_0_0_mem_bottom_track_1.prog_clk/X
+ mux_right_track_26.mux_l1_in_0_/S VGND VGND VPWR VPWR mux_right_track_26.mux_l2_in_0_/S
+ sky130_fd_sc_hd__dfxtp_1
X_48_ _48_/A VGND VGND VPWR VPWR _48_/X sky130_fd_sc_hd__clkbuf_2
XFILLER_20_221 VGND VGND VPWR VPWR sky130_fd_sc_hd__fill_2
XFILLER_20_210 VGND VGND VPWR VPWR sky130_fd_sc_hd__fill_2
XFILLER_18_87 VGND VGND VPWR VPWR sky130_fd_sc_hd__decap_12
XFILLER_18_54 VGND VGND VPWR VPWR sky130_fd_sc_hd__decap_12
Xmem_bottom_track_25.sky130_fd_sc_hd__dfxtp_1_1_ clkbuf_2_3_0_mem_bottom_track_1.prog_clk/X
+ mux_bottom_track_25.mux_l1_in_0_/S VGND VGND VPWR VPWR output54/A sky130_fd_sc_hd__dfxtp_1
XFILLER_20_99 VGND VGND VPWR VPWR sky130_fd_sc_hd__decap_12
XFILLER_20_66 VGND VGND VPWR VPWR sky130_fd_sc_hd__decap_12
XFILLER_1_90 VGND VGND VPWR VPWR sky130_fd_sc_hd__decap_4
XFILLER_19_151 VGND VGND VPWR VPWR sky130_fd_sc_hd__decap_6
XFILLER_6_79 VGND VGND VPWR VPWR sky130_fd_sc_hd__fill_2
XFILLER_6_68 VGND VGND VPWR VPWR sky130_fd_sc_hd__fill_2
XFILLER_1_209 VGND VGND VPWR VPWR sky130_fd_sc_hd__fill_2
XPHY_193 VGND VPWR sky130_fd_sc_hd__tapvpwrvgnd_1
Xoutput65 _68_/X VGND VGND VPWR VPWR chanx_right_out[19] sky130_fd_sc_hd__clkbuf_2
XPHY_182 VGND VPWR sky130_fd_sc_hd__tapvpwrvgnd_1
XFILLER_31_76 VGND VGND VPWR VPWR sky130_fd_sc_hd__decap_12
XPHY_171 VGND VPWR sky130_fd_sc_hd__tapvpwrvgnd_1
XPHY_160 VGND VPWR sky130_fd_sc_hd__tapvpwrvgnd_1
Xoutput54 output54/A VGND VGND VPWR VPWR ccff_tail sky130_fd_sc_hd__clkbuf_2
XFILLER_16_198 VGND VGND VPWR VPWR sky130_fd_sc_hd__fill_2
XFILLER_16_187 VGND VGND VPWR VPWR sky130_fd_sc_hd__fill_2
Xoutput87 _71_/X VGND VGND VPWR VPWR chany_bottom_out[2] sky130_fd_sc_hd__clkbuf_2
Xoutput76 _79_/X VGND VGND VPWR VPWR chany_bottom_out[10] sky130_fd_sc_hd__clkbuf_2
XANTENNA_input30_A chany_bottom_in[15] VGND VGND VPWR VPWR sky130_fd_sc_hd__diode_2
XFILLER_22_168 VGND VGND VPWR VPWR sky130_fd_sc_hd__decap_12
XANTENNA_mux_right_track_6.mux_l1_in_1__A0 input50/X VGND VGND VPWR VPWR sky130_fd_sc_hd__diode_2
XFILLER_26_87 VGND VGND VPWR VPWR sky130_fd_sc_hd__decap_12
XFILLER_26_54 VGND VGND VPWR VPWR sky130_fd_sc_hd__decap_12
X_81_ _81_/A VGND VGND VPWR VPWR _81_/X sky130_fd_sc_hd__clkbuf_1
XFILLER_3_47 VGND VGND VPWR VPWR sky130_fd_sc_hd__fill_2
XFILLER_3_58 VGND VGND VPWR VPWR sky130_fd_sc_hd__fill_1
XFILLER_12_78 VGND VGND VPWR VPWR sky130_fd_sc_hd__decap_8
X_64_ _64_/A VGND VGND VPWR VPWR _64_/X sky130_fd_sc_hd__clkbuf_1
XFILLER_5_120 VGND VGND VPWR VPWR sky130_fd_sc_hd__decap_3
XFILLER_5_164 VGND VGND VPWR VPWR sky130_fd_sc_hd__fill_2
XFILLER_0_59 VGND VGND VPWR VPWR sky130_fd_sc_hd__fill_2
XFILLER_2_112 VGND VGND VPWR VPWR sky130_fd_sc_hd__fill_2
XFILLER_3_3 VGND VGND VPWR VPWR sky130_fd_sc_hd__decap_12
Xmem_right_track_26.sky130_fd_sc_hd__dfxtp_1_0_ clkbuf_2_0_0_mem_bottom_track_1.prog_clk/X
+ mux_right_track_24.mux_l2_in_0_/S VGND VGND VPWR VPWR mux_right_track_26.mux_l1_in_0_/S
+ sky130_fd_sc_hd__dfxtp_1
X_47_ VGND VGND VPWR VPWR _47_/HI _47_/LO sky130_fd_sc_hd__conb_1
XFILLER_18_99 VGND VGND VPWR VPWR sky130_fd_sc_hd__decap_12
XFILLER_18_66 VGND VGND VPWR VPWR sky130_fd_sc_hd__decap_12
Xmem_bottom_track_25.sky130_fd_sc_hd__dfxtp_1_0_ clkbuf_2_3_0_mem_bottom_track_1.prog_clk/X
+ mux_bottom_track_9.mux_l2_in_0_/S VGND VGND VPWR VPWR mux_bottom_track_25.mux_l1_in_0_/S
+ sky130_fd_sc_hd__dfxtp_1
XFILLER_29_119 VGND VGND VPWR VPWR sky130_fd_sc_hd__fill_1
XFILLER_20_78 VGND VGND VPWR VPWR sky130_fd_sc_hd__decap_8
XFILLER_4_218 VGND VGND VPWR VPWR sky130_fd_sc_hd__decap_4
XFILLER_31_88 VGND VGND VPWR VPWR sky130_fd_sc_hd__decap_12
Xoutput55 _49_/X VGND VGND VPWR VPWR chanx_right_out[0] sky130_fd_sc_hd__buf_2
Xoutput66 _50_/X VGND VGND VPWR VPWR chanx_right_out[1] sky130_fd_sc_hd__clkbuf_2
XFILLER_16_144 VGND VGND VPWR VPWR sky130_fd_sc_hd__decap_3
XFILLER_16_111 VGND VGND VPWR VPWR sky130_fd_sc_hd__decap_12
XANTENNA_input23_A chanx_right_in[9] VGND VGND VPWR VPWR sky130_fd_sc_hd__diode_2
Xoutput88 _72_/X VGND VGND VPWR VPWR chany_bottom_out[3] sky130_fd_sc_hd__clkbuf_2
Xoutput77 _80_/X VGND VGND VPWR VPWR chany_bottom_out[11] sky130_fd_sc_hd__clkbuf_2
XFILLER_0_221 VGND VGND VPWR VPWR sky130_fd_sc_hd__fill_2
XPHY_183 VGND VPWR sky130_fd_sc_hd__tapvpwrvgnd_1
XPHY_172 VGND VPWR sky130_fd_sc_hd__tapvpwrvgnd_1
XPHY_161 VGND VPWR sky130_fd_sc_hd__tapvpwrvgnd_1
XPHY_150 VGND VPWR sky130_fd_sc_hd__tapvpwrvgnd_1
XFILLER_30_180 VGND VGND VPWR VPWR sky130_fd_sc_hd__decap_8
XFILLER_26_99 VGND VGND VPWR VPWR sky130_fd_sc_hd__decap_12
XFILLER_26_66 VGND VGND VPWR VPWR sky130_fd_sc_hd__decap_12
XFILLER_21_180 VGND VGND VPWR VPWR sky130_fd_sc_hd__decap_4
XFILLER_21_191 VGND VGND VPWR VPWR sky130_fd_sc_hd__fill_2
XFILLER_12_180 VGND VGND VPWR VPWR sky130_fd_sc_hd__fill_2
X_80_ _80_/A VGND VGND VPWR VPWR _80_/X sky130_fd_sc_hd__clkbuf_1
XFILLER_3_15 VGND VGND VPWR VPWR sky130_fd_sc_hd__decap_12
XFILLER_33_209 VGND VGND VPWR VPWR sky130_fd_sc_hd__fill_2
XFILLER_18_217 VGND VGND VPWR VPWR sky130_fd_sc_hd__fill_2
X_63_ _63_/A VGND VGND VPWR VPWR _63_/X sky130_fd_sc_hd__clkbuf_1
XFILLER_24_209 VGND VGND VPWR VPWR sky130_fd_sc_hd__fill_2
XANTENNA_output54_A output54/A VGND VGND VPWR VPWR sky130_fd_sc_hd__diode_2
Xprog_clk_0_FTB00 prog_clk_0_E_in VGND VGND VPWR VPWR prog_clk_0_FTB00/X sky130_fd_sc_hd__buf_8
XFILLER_2_135 VGND VGND VPWR VPWR sky130_fd_sc_hd__fill_2
XFILLER_29_3 VGND VGND VPWR VPWR sky130_fd_sc_hd__decap_12
XFILLER_9_58 VGND VGND VPWR VPWR sky130_fd_sc_hd__decap_12
X_46_ VGND VGND VPWR VPWR _46_/HI _46_/LO sky130_fd_sc_hd__conb_1
XFILLER_18_78 VGND VGND VPWR VPWR sky130_fd_sc_hd__decap_8
Xmux_right_track_10.mux_l2_in_0_ _41_/HI mux_right_track_10.mux_l1_in_0_/X mux_right_track_10.mux_l2_in_0_/S
+ VGND VGND VPWR VPWR mux_right_track_10.mux_l2_in_0_/X sky130_fd_sc_hd__mux2_1
X_29_ VGND VGND VPWR VPWR _29_/HI _29_/LO sky130_fd_sc_hd__conb_1
XFILLER_6_15 VGND VGND VPWR VPWR sky130_fd_sc_hd__decap_12
XFILLER_19_164 VGND VGND VPWR VPWR sky130_fd_sc_hd__fill_2
Xoutput56 _59_/X VGND VGND VPWR VPWR chanx_right_out[10] sky130_fd_sc_hd__clkbuf_2
Xoutput67 _51_/X VGND VGND VPWR VPWR chanx_right_out[2] sky130_fd_sc_hd__clkbuf_2
Xoutput89 _73_/X VGND VGND VPWR VPWR chany_bottom_out[4] sky130_fd_sc_hd__clkbuf_2
Xoutput78 _81_/X VGND VGND VPWR VPWR chany_bottom_out[12] sky130_fd_sc_hd__clkbuf_2
XPHY_184 VGND VPWR sky130_fd_sc_hd__tapvpwrvgnd_1
XFILLER_31_115 VGND VGND VPWR VPWR sky130_fd_sc_hd__decap_8
XPHY_173 VGND VPWR sky130_fd_sc_hd__tapvpwrvgnd_1
XPHY_162 VGND VPWR sky130_fd_sc_hd__tapvpwrvgnd_1
XPHY_151 VGND VPWR sky130_fd_sc_hd__tapvpwrvgnd_1
XPHY_140 VGND VPWR sky130_fd_sc_hd__tapvpwrvgnd_1
XFILLER_16_123 VGND VGND VPWR VPWR sky130_fd_sc_hd__decap_8
XFILLER_11_3 VGND VGND VPWR VPWR sky130_fd_sc_hd__decap_12
XANTENNA_input16_A chanx_right_in[2] VGND VGND VPWR VPWR sky130_fd_sc_hd__diode_2
XFILLER_30_192 VGND VGND VPWR VPWR sky130_fd_sc_hd__decap_8
XFILLER_26_78 VGND VGND VPWR VPWR sky130_fd_sc_hd__decap_8
XANTENNA_input8_A chanx_right_in[13] VGND VGND VPWR VPWR sky130_fd_sc_hd__diode_2
XFILLER_13_115 VGND VGND VPWR VPWR sky130_fd_sc_hd__fill_2
XFILLER_13_137 VGND VGND VPWR VPWR sky130_fd_sc_hd__decap_4
XFILLER_13_126 VGND VGND VPWR VPWR sky130_fd_sc_hd__fill_2
XFILLER_3_27 VGND VGND VPWR VPWR sky130_fd_sc_hd__decap_8
XFILLER_3_38 VGND VGND VPWR VPWR sky130_fd_sc_hd__fill_2
XFILLER_12_192 VGND VGND VPWR VPWR sky130_fd_sc_hd__fill_2
XFILLER_8_152 VGND VGND VPWR VPWR sky130_fd_sc_hd__fill_2
XFILLER_18_207 VGND VGND VPWR VPWR sky130_fd_sc_hd__fill_2
XFILLER_5_144 VGND VGND VPWR VPWR sky130_fd_sc_hd__fill_2
XFILLER_32_221 VGND VGND VPWR VPWR sky130_fd_sc_hd__fill_2
X_62_ _62_/A VGND VGND VPWR VPWR _62_/X sky130_fd_sc_hd__buf_1
XFILLER_23_221 VGND VGND VPWR VPWR sky130_fd_sc_hd__fill_2
Xmem_bottom_track_9.sky130_fd_sc_hd__dfxtp_1_1_ clkbuf_2_3_0_mem_bottom_track_1.prog_clk/X
+ mux_bottom_track_9.mux_l1_in_0_/S VGND VGND VPWR VPWR mux_bottom_track_9.mux_l2_in_0_/S
+ sky130_fd_sc_hd__dfxtp_1
XFILLER_9_15 VGND VGND VPWR VPWR sky130_fd_sc_hd__decap_12
XFILLER_0_28 VGND VGND VPWR VPWR sky130_fd_sc_hd__fill_1
X_45_ VGND VGND VPWR VPWR _45_/HI _45_/LO sky130_fd_sc_hd__conb_1
XANTENNA_input46_A right_bottom_grid_pin_36_ VGND VGND VPWR VPWR sky130_fd_sc_hd__diode_2
X_28_ VGND VGND VPWR VPWR _28_/HI _28_/LO sky130_fd_sc_hd__conb_1
XFILLER_6_27 VGND VGND VPWR VPWR sky130_fd_sc_hd__fill_2
Xoutput57 _60_/X VGND VGND VPWR VPWR chanx_right_out[11] sky130_fd_sc_hd__clkbuf_2
XFILLER_15_58 VGND VGND VPWR VPWR sky130_fd_sc_hd__decap_12
XFILLER_0_201 VGND VGND VPWR VPWR sky130_fd_sc_hd__fill_2
Xmem_right_track_12.sky130_fd_sc_hd__dfxtp_1_1_ clkbuf_2_0_0_mem_bottom_track_1.prog_clk/X
+ mux_right_track_12.mux_l1_in_0_/S VGND VGND VPWR VPWR mux_right_track_12.mux_l2_in_0_/S
+ sky130_fd_sc_hd__dfxtp_1
XPHY_185 VGND VPWR sky130_fd_sc_hd__tapvpwrvgnd_1
XPHY_174 VGND VPWR sky130_fd_sc_hd__tapvpwrvgnd_1
XPHY_163 VGND VPWR sky130_fd_sc_hd__tapvpwrvgnd_1
Xoutput68 _52_/X VGND VGND VPWR VPWR chanx_right_out[3] sky130_fd_sc_hd__clkbuf_2
XPHY_152 VGND VPWR sky130_fd_sc_hd__tapvpwrvgnd_1
XPHY_141 VGND VPWR sky130_fd_sc_hd__tapvpwrvgnd_1
XPHY_130 VGND VPWR sky130_fd_sc_hd__tapvpwrvgnd_1
XFILLER_16_179 VGND VGND VPWR VPWR sky130_fd_sc_hd__decap_4
XFILLER_16_168 VGND VGND VPWR VPWR sky130_fd_sc_hd__fill_2
Xmux_right_track_10.mux_l1_in_0_ input28/X input44/X mux_right_track_10.mux_l1_in_0_/S
+ VGND VGND VPWR VPWR mux_right_track_10.mux_l1_in_0_/X sky130_fd_sc_hd__mux2_1
Xmux_right_track_8.mux_l2_in_0_ mux_right_track_8.mux_l1_in_1_/X mux_right_track_8.mux_l1_in_0_/X
+ mux_right_track_8.mux_l2_in_0_/S VGND VGND VPWR VPWR mux_right_track_8.mux_l2_in_0_/X
+ sky130_fd_sc_hd__mux2_1
Xoutput79 _82_/X VGND VGND VPWR VPWR chany_bottom_out[13] sky130_fd_sc_hd__clkbuf_2
Xmux_right_track_22.mux_l2_in_0_ _24_/HI mux_right_track_22.mux_l1_in_0_/X mux_right_track_22.mux_l2_in_0_/S
+ VGND VGND VPWR VPWR mux_right_track_22.mux_l2_in_0_/X sky130_fd_sc_hd__mux2_1
XFILLER_13_149 VGND VGND VPWR VPWR sky130_fd_sc_hd__fill_2
XFILLER_12_15 VGND VGND VPWR VPWR sky130_fd_sc_hd__decap_12
XANTENNA_mux_right_track_22.mux_l1_in_0__A1 input50/X VGND VGND VPWR VPWR sky130_fd_sc_hd__diode_2
Xmux_right_track_8.mux_l1_in_1_ _35_/HI input29/X mux_right_track_8.mux_l1_in_1_/S
+ VGND VGND VPWR VPWR mux_right_track_8.mux_l1_in_1_/X sky130_fd_sc_hd__mux2_1
X_61_ _61_/A VGND VGND VPWR VPWR _61_/X sky130_fd_sc_hd__clkbuf_1
XFILLER_5_112 VGND VGND VPWR VPWR sky130_fd_sc_hd__fill_2
XFILLER_5_178 VGND VGND VPWR VPWR sky130_fd_sc_hd__fill_2
XFILLER_23_58 VGND VGND VPWR VPWR sky130_fd_sc_hd__decap_12
Xmem_bottom_track_9.sky130_fd_sc_hd__dfxtp_1_0_ clkbuf_2_3_0_mem_bottom_track_1.prog_clk/X
+ mux_bottom_track_5.mux_l2_in_0_/S VGND VGND VPWR VPWR mux_bottom_track_9.mux_l1_in_0_/S
+ sky130_fd_sc_hd__dfxtp_1
XFILLER_14_222 VGND VGND VPWR VPWR sky130_fd_sc_hd__fill_1
XFILLER_9_27 VGND VGND VPWR VPWR sky130_fd_sc_hd__decap_12
XFILLER_2_148 VGND VGND VPWR VPWR sky130_fd_sc_hd__fill_2
XFILLER_20_203 VGND VGND VPWR VPWR sky130_fd_sc_hd__decap_4
X_44_ VGND VGND VPWR VPWR _44_/HI _44_/LO sky130_fd_sc_hd__conb_1
XFILLER_11_214 VGND VGND VPWR VPWR sky130_fd_sc_hd__fill_2
XANTENNA_input39_A chany_bottom_in[5] VGND VGND VPWR VPWR sky130_fd_sc_hd__diode_2
Xmux_right_track_10.sky130_fd_sc_hd__buf_4_0_ mux_right_track_10.mux_l2_in_0_/X VGND
+ VGND VPWR VPWR _54_/A sky130_fd_sc_hd__clkbuf_1
XFILLER_1_61 VGND VGND VPWR VPWR sky130_fd_sc_hd__decap_3
XFILLER_1_50 VGND VGND VPWR VPWR sky130_fd_sc_hd__fill_2
X_27_ VGND VGND VPWR VPWR _27_/HI _27_/LO sky130_fd_sc_hd__conb_1
XFILLER_28_144 VGND VGND VPWR VPWR sky130_fd_sc_hd__decap_12
XFILLER_28_111 VGND VGND VPWR VPWR sky130_fd_sc_hd__decap_12
XFILLER_20_15 VGND VGND VPWR VPWR sky130_fd_sc_hd__decap_12
XFILLER_19_199 VGND VGND VPWR VPWR sky130_fd_sc_hd__fill_2
XFILLER_10_92 VGND VGND VPWR VPWR sky130_fd_sc_hd__decap_4
XFILLER_3_221 VGND VGND VPWR VPWR sky130_fd_sc_hd__fill_2
XFILLER_31_58 VGND VGND VPWR VPWR sky130_fd_sc_hd__fill_2
XFILLER_15_15 VGND VGND VPWR VPWR sky130_fd_sc_hd__decap_12
Xmem_right_track_12.sky130_fd_sc_hd__dfxtp_1_0_ clkbuf_2_0_0_mem_bottom_track_1.prog_clk/X
+ mux_right_track_10.mux_l2_in_0_/S VGND VGND VPWR VPWR mux_right_track_12.mux_l1_in_0_/S
+ sky130_fd_sc_hd__dfxtp_1
XPHY_186 VGND VPWR sky130_fd_sc_hd__tapvpwrvgnd_1
XFILLER_31_128 VGND VGND VPWR VPWR sky130_fd_sc_hd__decap_12
Xoutput58 _61_/X VGND VGND VPWR VPWR chanx_right_out[12] sky130_fd_sc_hd__clkbuf_2
XPHY_175 VGND VPWR sky130_fd_sc_hd__tapvpwrvgnd_1
XPHY_164 VGND VPWR sky130_fd_sc_hd__tapvpwrvgnd_1
Xoutput69 _53_/X VGND VGND VPWR VPWR chanx_right_out[4] sky130_fd_sc_hd__clkbuf_2
XPHY_153 VGND VPWR sky130_fd_sc_hd__tapvpwrvgnd_1
XPHY_142 VGND VPWR sky130_fd_sc_hd__tapvpwrvgnd_1
XPHY_131 VGND VPWR sky130_fd_sc_hd__tapvpwrvgnd_1
XPHY_120 VGND VPWR sky130_fd_sc_hd__tapvpwrvgnd_1
XPHY_0 VGND VGND VPWR VPWR sky130_fd_sc_hd__decap_3
XFILLER_21_172 VGND VGND VPWR VPWR sky130_fd_sc_hd__decap_6
XFILLER_13_106 VGND VGND VPWR VPWR sky130_fd_sc_hd__decap_3
XANTENNA_mux_bottom_track_25.mux_l1_in_0__A0 input2/X VGND VGND VPWR VPWR sky130_fd_sc_hd__diode_2
XFILLER_27_209 VGND VGND VPWR VPWR sky130_fd_sc_hd__fill_2
XANTENNA_input21_A chanx_right_in[7] VGND VGND VPWR VPWR sky130_fd_sc_hd__diode_2
XFILLER_8_198 VGND VGND VPWR VPWR sky130_fd_sc_hd__fill_2
XFILLER_12_27 VGND VGND VPWR VPWR sky130_fd_sc_hd__fill_2
Xmux_right_track_8.mux_l1_in_0_ input51/X input52/X mux_right_track_8.mux_l1_in_1_/S
+ VGND VGND VPWR VPWR mux_right_track_8.mux_l1_in_0_/X sky130_fd_sc_hd__mux2_1
XFILLER_32_201 VGND VGND VPWR VPWR sky130_fd_sc_hd__decap_4
X_60_ _60_/A VGND VGND VPWR VPWR _60_/X sky130_fd_sc_hd__clkbuf_1
Xmem_right_track_18.sky130_fd_sc_hd__dfxtp_1_1_ clkbuf_2_1_0_mem_bottom_track_1.prog_clk/X
+ mux_right_track_18.mux_l1_in_0_/S VGND VGND VPWR VPWR mux_right_track_18.mux_l2_in_0_/S
+ sky130_fd_sc_hd__dfxtp_1
Xmux_right_track_22.mux_l1_in_0_ input41/X input50/X mux_right_track_22.mux_l1_in_0_/S
+ VGND VGND VPWR VPWR mux_right_track_22.mux_l1_in_0_/X sky130_fd_sc_hd__mux2_1
XFILLER_23_15 VGND VGND VPWR VPWR sky130_fd_sc_hd__decap_12
Xmux_right_track_34.mux_l2_in_0_ _30_/HI mux_right_track_34.mux_l1_in_0_/X mux_right_track_34.mux_l2_in_0_/S
+ VGND VGND VPWR VPWR mux_right_track_34.mux_l2_in_0_/X sky130_fd_sc_hd__mux2_1
Xmux_right_track_8.sky130_fd_sc_hd__buf_4_0_ mux_right_track_8.mux_l2_in_0_/X VGND
+ VGND VPWR VPWR _53_/A sky130_fd_sc_hd__clkbuf_1
XFILLER_14_201 VGND VGND VPWR VPWR sky130_fd_sc_hd__decap_3
XFILLER_13_70 VGND VGND VPWR VPWR sky130_fd_sc_hd__decap_12
XFILLER_9_39 VGND VGND VPWR VPWR sky130_fd_sc_hd__decap_12
XFILLER_0_19 VGND VGND VPWR VPWR sky130_fd_sc_hd__fill_2
XFILLER_20_215 VGND VGND VPWR VPWR sky130_fd_sc_hd__fill_2
X_43_ VGND VGND VPWR VPWR _43_/HI _43_/LO sky130_fd_sc_hd__conb_1
XFILLER_18_15 VGND VGND VPWR VPWR sky130_fd_sc_hd__decap_12
XFILLER_7_219 VGND VGND VPWR VPWR sky130_fd_sc_hd__decap_4
XFILLER_7_208 VGND VGND VPWR VPWR sky130_fd_sc_hd__fill_2
XFILLER_27_3 VGND VGND VPWR VPWR sky130_fd_sc_hd__decap_12
XFILLER_29_58 VGND VGND VPWR VPWR sky130_fd_sc_hd__decap_12
XFILLER_28_156 VGND VGND VPWR VPWR sky130_fd_sc_hd__decap_12
XFILLER_28_123 VGND VGND VPWR VPWR sky130_fd_sc_hd__decap_12
XFILLER_20_27 VGND VGND VPWR VPWR sky130_fd_sc_hd__fill_2
XFILLER_1_40 VGND VGND VPWR VPWR sky130_fd_sc_hd__fill_2
X_26_ VGND VGND VPWR VPWR _26_/HI _26_/LO sky130_fd_sc_hd__conb_1
XANTENNA_input51_A right_bottom_grid_pin_41_ VGND VGND VPWR VPWR sky130_fd_sc_hd__diode_2
XFILLER_33_170 VGND VGND VPWR VPWR sky130_fd_sc_hd__decap_4
Xmux_right_track_32.sky130_fd_sc_hd__buf_4_0_ mux_right_track_32.mux_l2_in_0_/X VGND
+ VGND VPWR VPWR _65_/A sky130_fd_sc_hd__clkbuf_1
XFILLER_25_115 VGND VGND VPWR VPWR sky130_fd_sc_hd__decap_12
XFILLER_15_27 VGND VGND VPWR VPWR sky130_fd_sc_hd__decap_12
XPHY_187 VGND VPWR sky130_fd_sc_hd__tapvpwrvgnd_1
Xoutput59 _62_/X VGND VGND VPWR VPWR chanx_right_out[13] sky130_fd_sc_hd__clkbuf_2
XFILLER_31_15 VGND VGND VPWR VPWR sky130_fd_sc_hd__decap_12
XPHY_176 VGND VPWR sky130_fd_sc_hd__tapvpwrvgnd_1
XPHY_165 VGND VPWR sky130_fd_sc_hd__tapvpwrvgnd_1
XPHY_154 VGND VPWR sky130_fd_sc_hd__tapvpwrvgnd_1
XPHY_143 VGND VPWR sky130_fd_sc_hd__tapvpwrvgnd_1
XPHY_132 VGND VPWR sky130_fd_sc_hd__tapvpwrvgnd_1
XPHY_121 VGND VPWR sky130_fd_sc_hd__tapvpwrvgnd_1
XPHY_110 VGND VPWR sky130_fd_sc_hd__tapvpwrvgnd_1
XANTENNA_clkbuf_2_3_0_mem_bottom_track_1.prog_clk_A clkbuf_2_3_0_mem_bottom_track_1.prog_clk/A
+ VGND VGND VPWR VPWR sky130_fd_sc_hd__diode_2
XFILLER_21_70 VGND VGND VPWR VPWR sky130_fd_sc_hd__decap_12
XPHY_1 VGND VGND VPWR VPWR sky130_fd_sc_hd__decap_3
XFILLER_26_15 VGND VGND VPWR VPWR sky130_fd_sc_hd__decap_12
XFILLER_21_195 VGND VGND VPWR VPWR sky130_fd_sc_hd__fill_2
XFILLER_21_184 VGND VGND VPWR VPWR sky130_fd_sc_hd__fill_1
XFILLER_21_151 VGND VGND VPWR VPWR sky130_fd_sc_hd__decap_12
Xmux_right_track_26.sky130_fd_sc_hd__buf_4_0_ mux_right_track_26.mux_l2_in_0_/X VGND
+ VGND VPWR VPWR _62_/A sky130_fd_sc_hd__clkbuf_1
XANTENNA_input14_A chanx_right_in[19] VGND VGND VPWR VPWR sky130_fd_sc_hd__diode_2
XFILLER_12_162 VGND VGND VPWR VPWR sky130_fd_sc_hd__fill_2
XFILLER_8_144 VGND VGND VPWR VPWR sky130_fd_sc_hd__fill_1
XANTENNA_input6_A chanx_right_in[11] VGND VGND VPWR VPWR sky130_fd_sc_hd__diode_2
XFILLER_26_221 VGND VGND VPWR VPWR sky130_fd_sc_hd__fill_2
XFILLER_26_210 VGND VGND VPWR VPWR sky130_fd_sc_hd__fill_2
XFILLER_17_221 VGND VGND VPWR VPWR sky130_fd_sc_hd__fill_2
XFILLER_17_210 VGND VGND VPWR VPWR sky130_fd_sc_hd__decap_4
Xmem_right_track_18.sky130_fd_sc_hd__dfxtp_1_0_ clkbuf_2_1_0_mem_bottom_track_1.prog_clk/X
+ mux_right_track_16.mux_l2_in_0_/S VGND VGND VPWR VPWR mux_right_track_18.mux_l1_in_0_/S
+ sky130_fd_sc_hd__dfxtp_1
XFILLER_5_169 VGND VGND VPWR VPWR sky130_fd_sc_hd__fill_2
XFILLER_4_51 VGND VGND VPWR VPWR sky130_fd_sc_hd__fill_2
XFILLER_4_84 VGND VGND VPWR VPWR sky130_fd_sc_hd__fill_2
XFILLER_23_27 VGND VGND VPWR VPWR sky130_fd_sc_hd__decap_12
XFILLER_2_117 VGND VGND VPWR VPWR sky130_fd_sc_hd__fill_2
XFILLER_13_82 VGND VGND VPWR VPWR sky130_fd_sc_hd__decap_12
Xmux_bottom_track_25.mux_l2_in_0_ _37_/HI mux_bottom_track_25.mux_l1_in_0_/X output54/A
+ VGND VGND VPWR VPWR mux_bottom_track_25.mux_l2_in_0_/X sky130_fd_sc_hd__mux2_1
X_42_ VGND VGND VPWR VPWR _42_/HI _42_/LO sky130_fd_sc_hd__conb_1
XFILLER_1_172 VGND VGND VPWR VPWR sky130_fd_sc_hd__fill_2
XFILLER_1_183 VGND VGND VPWR VPWR sky130_fd_sc_hd__decap_4
XFILLER_18_27 VGND VGND VPWR VPWR sky130_fd_sc_hd__fill_2
Xmem_right_track_30.sky130_fd_sc_hd__dfxtp_1_1_ clkbuf_2_0_0_mem_bottom_track_1.prog_clk/X
+ mux_right_track_30.mux_l1_in_0_/S VGND VGND VPWR VPWR mux_right_track_30.mux_l2_in_0_/S
+ sky130_fd_sc_hd__dfxtp_1
Xmux_right_track_34.mux_l1_in_0_ input35/X input48/X mux_right_track_34.mux_l1_in_0_/S
+ VGND VGND VPWR VPWR mux_right_track_34.mux_l1_in_0_/X sky130_fd_sc_hd__mux2_1
XFILLER_29_15 VGND VGND VPWR VPWR sky130_fd_sc_hd__decap_12
XFILLER_1_85 VGND VGND VPWR VPWR sky130_fd_sc_hd__fill_2
X_25_ VGND VGND VPWR VPWR _25_/HI _25_/LO sky130_fd_sc_hd__conb_1
XFILLER_28_168 VGND VGND VPWR VPWR sky130_fd_sc_hd__decap_12
XFILLER_28_135 VGND VGND VPWR VPWR sky130_fd_sc_hd__decap_8
Xmux_bottom_track_9.mux_l2_in_0_ _39_/HI mux_bottom_track_9.mux_l1_in_0_/X mux_bottom_track_9.mux_l2_in_0_/S
+ VGND VGND VPWR VPWR mux_bottom_track_9.mux_l2_in_0_/X sky130_fd_sc_hd__mux2_1
XANTENNA_input44_A right_bottom_grid_pin_34_ VGND VGND VPWR VPWR sky130_fd_sc_hd__diode_2
XFILLER_19_157 VGND VGND VPWR VPWR sky130_fd_sc_hd__fill_1
XFILLER_19_70 VGND VGND VPWR VPWR sky130_fd_sc_hd__decap_12
XFILLER_31_27 VGND VGND VPWR VPWR sky130_fd_sc_hd__decap_12
XFILLER_25_127 VGND VGND VPWR VPWR sky130_fd_sc_hd__decap_12
XFILLER_15_39 VGND VGND VPWR VPWR sky130_fd_sc_hd__decap_12
XPHY_100 VGND VPWR sky130_fd_sc_hd__tapvpwrvgnd_1
XFILLER_0_204 VGND VGND VPWR VPWR sky130_fd_sc_hd__fill_2
XPHY_188 VGND VPWR sky130_fd_sc_hd__tapvpwrvgnd_1
XPHY_177 VGND VPWR sky130_fd_sc_hd__tapvpwrvgnd_1
XPHY_166 VGND VPWR sky130_fd_sc_hd__tapvpwrvgnd_1
XPHY_155 VGND VPWR sky130_fd_sc_hd__tapvpwrvgnd_1