* NGSPICE file created from sb_0__0_.ext - technology: sky130A

* Black-box entry subcircuit for sky130_fd_sc_hd__dfxtp_1 abstract view
.subckt sky130_fd_sc_hd__dfxtp_1 CLK D VGND VNB VPB VPWR Q
.ends

* Black-box entry subcircuit for sky130_fd_sc_hd__buf_1 abstract view
.subckt sky130_fd_sc_hd__buf_1 A VGND VNB VPB VPWR X
.ends

* Black-box entry subcircuit for sky130_fd_sc_hd__decap_8 abstract view
.subckt sky130_fd_sc_hd__decap_8 VGND VNB VPB VPWR
.ends

* Black-box entry subcircuit for sky130_fd_sc_hd__fill_2 abstract view
.subckt sky130_fd_sc_hd__fill_2 VGND VNB VPB VPWR
.ends

* Black-box entry subcircuit for sky130_fd_sc_hd__fill_1 abstract view
.subckt sky130_fd_sc_hd__fill_1 VGND VNB VPB VPWR
.ends

* Black-box entry subcircuit for sky130_fd_sc_hd__clkbuf_1 abstract view
.subckt sky130_fd_sc_hd__clkbuf_1 A VGND VNB VPB VPWR X
.ends

* Black-box entry subcircuit for sky130_fd_sc_hd__decap_6 abstract view
.subckt sky130_fd_sc_hd__decap_6 VGND VNB VPB VPWR
.ends

* Black-box entry subcircuit for sky130_fd_sc_hd__decap_12 abstract view
.subckt sky130_fd_sc_hd__decap_12 VGND VNB VPB VPWR
.ends

* Black-box entry subcircuit for sky130_fd_sc_hd__decap_4 abstract view
.subckt sky130_fd_sc_hd__decap_4 VGND VNB VPB VPWR
.ends

* Black-box entry subcircuit for sky130_fd_sc_hd__diode_2 abstract view
.subckt sky130_fd_sc_hd__diode_2 DIODE VGND VNB VPB VPWR
.ends

* Black-box entry subcircuit for sky130_fd_sc_hd__tapvpwrvgnd_1 abstract view
.subckt sky130_fd_sc_hd__tapvpwrvgnd_1 VGND VPWR
.ends

* Black-box entry subcircuit for sky130_fd_sc_hd__clkbuf_2 abstract view
.subckt sky130_fd_sc_hd__clkbuf_2 A VGND VNB VPB VPWR X
.ends

* Black-box entry subcircuit for sky130_fd_sc_hd__mux2_1 abstract view
.subckt sky130_fd_sc_hd__mux2_1 A0 A1 S VGND VNB VPB VPWR X
.ends

* Black-box entry subcircuit for sky130_fd_sc_hd__decap_3 abstract view
.subckt sky130_fd_sc_hd__decap_3 VGND VNB VPB VPWR
.ends

* Black-box entry subcircuit for sky130_fd_sc_hd__buf_2 abstract view
.subckt sky130_fd_sc_hd__buf_2 A VGND VNB VPB VPWR X
.ends

* Black-box entry subcircuit for sky130_fd_sc_hd__conb_1 abstract view
.subckt sky130_fd_sc_hd__conb_1 VGND VNB VPB VPWR HI LO
.ends

* Black-box entry subcircuit for sky130_fd_sc_hd__buf_8 abstract view
.subckt sky130_fd_sc_hd__buf_8 A VGND VNB VPB VPWR X
.ends

* Black-box entry subcircuit for sky130_fd_sc_hd__dfxtp_2 abstract view
.subckt sky130_fd_sc_hd__dfxtp_2 CLK D VGND VNB VPB VPWR Q
.ends

* Black-box entry subcircuit for sky130_fd_sc_hd__clkbuf_16 abstract view
.subckt sky130_fd_sc_hd__clkbuf_16 A VGND VNB VPB VPWR X
.ends

* Black-box entry subcircuit for sky130_fd_sc_hd__dlygate4sd1_1 abstract view
.subckt sky130_fd_sc_hd__dlygate4sd1_1 A VGND VNB VPB VPWR X
.ends

.subckt sb_0__0_ ccff_head ccff_tail chanx_right_in[0] chanx_right_in[10] chanx_right_in[11]
+ chanx_right_in[12] chanx_right_in[13] chanx_right_in[14] chanx_right_in[15] chanx_right_in[16]
+ chanx_right_in[17] chanx_right_in[18] chanx_right_in[19] chanx_right_in[1] chanx_right_in[2]
+ chanx_right_in[3] chanx_right_in[4] chanx_right_in[5] chanx_right_in[6] chanx_right_in[7]
+ chanx_right_in[8] chanx_right_in[9] chanx_right_out[0] chanx_right_out[10] chanx_right_out[11]
+ chanx_right_out[12] chanx_right_out[13] chanx_right_out[14] chanx_right_out[15]
+ chanx_right_out[16] chanx_right_out[17] chanx_right_out[18] chanx_right_out[19]
+ chanx_right_out[1] chanx_right_out[2] chanx_right_out[3] chanx_right_out[4] chanx_right_out[5]
+ chanx_right_out[6] chanx_right_out[7] chanx_right_out[8] chanx_right_out[9] chany_top_in[0]
+ chany_top_in[10] chany_top_in[11] chany_top_in[12] chany_top_in[13] chany_top_in[14]
+ chany_top_in[15] chany_top_in[16] chany_top_in[17] chany_top_in[18] chany_top_in[19]
+ chany_top_in[1] chany_top_in[2] chany_top_in[3] chany_top_in[4] chany_top_in[5]
+ chany_top_in[6] chany_top_in[7] chany_top_in[8] chany_top_in[9] chany_top_out[0]
+ chany_top_out[10] chany_top_out[11] chany_top_out[12] chany_top_out[13] chany_top_out[14]
+ chany_top_out[15] chany_top_out[16] chany_top_out[17] chany_top_out[18] chany_top_out[19]
+ chany_top_out[1] chany_top_out[2] chany_top_out[3] chany_top_out[4] chany_top_out[5]
+ chany_top_out[6] chany_top_out[7] chany_top_out[8] chany_top_out[9] prog_clk_0_E_in
+ right_bottom_grid_pin_11_ right_bottom_grid_pin_13_ right_bottom_grid_pin_15_ right_bottom_grid_pin_17_
+ right_bottom_grid_pin_1_ right_bottom_grid_pin_3_ right_bottom_grid_pin_5_ right_bottom_grid_pin_7_
+ right_bottom_grid_pin_9_ top_left_grid_pin_1_ VPWR VGND
Xmem_right_track_20.sky130_fd_sc_hd__dfxtp_1_1_ clkbuf_2_3_0_mem_right_track_0.prog_clk/X
+ mux_right_track_20.mux_l1_in_0_/S VGND VGND VPWR VPWR mux_right_track_20.mux_l2_in_0_/S
+ sky130_fd_sc_hd__dfxtp_1
Xmem_right_track_2.sky130_fd_sc_hd__dfxtp_1_0_ clkbuf_2_2_0_mem_right_track_0.prog_clk/X
+ mux_right_track_0.mux_l3_in_0_/S VGND VGND VPWR VPWR rebuffer3/A sky130_fd_sc_hd__dfxtp_1
X_83_ _83_/A VGND VGND VPWR VPWR _83_/X sky130_fd_sc_hd__buf_1
XFILLER_3_78 VGND VGND VPWR VPWR sky130_fd_sc_hd__decap_8
XFILLER_9_115 VGND VGND VPWR VPWR sky130_fd_sc_hd__fill_2
XFILLER_8_170 VGND VGND VPWR VPWR sky130_fd_sc_hd__fill_1
X_66_ _66_/A VGND VGND VPWR VPWR _66_/X sky130_fd_sc_hd__clkbuf_1
XFILLER_30_209 VGND VGND VPWR VPWR sky130_fd_sc_hd__fill_2
Xmux_right_track_36.sky130_fd_sc_hd__buf_4_0_ mux_right_track_36.mux_l2_in_0_/X VGND
+ VGND VPWR VPWR _66_/A sky130_fd_sc_hd__clkbuf_1
XFILLER_15_217 VGND VGND VPWR VPWR sky130_fd_sc_hd__decap_6
Xmem_right_track_8.sky130_fd_sc_hd__dfxtp_1_1_ clkbuf_2_0_0_mem_right_track_0.prog_clk/X
+ mux_right_track_8.mux_l1_in_1_/S VGND VGND VPWR VPWR mux_right_track_8.mux_l2_in_0_/S
+ sky130_fd_sc_hd__dfxtp_1
XFILLER_9_66 VGND VGND VPWR VPWR sky130_fd_sc_hd__decap_12
X_49_ _49_/A VGND VGND VPWR VPWR _49_/X sky130_fd_sc_hd__clkbuf_1
XFILLER_29_139 VGND VGND VPWR VPWR sky130_fd_sc_hd__decap_4
XFILLER_29_128 VGND VGND VPWR VPWR sky130_fd_sc_hd__fill_2
XFILLER_29_30 VGND VGND VPWR VPWR sky130_fd_sc_hd__decap_12
XFILLER_28_194 VGND VGND VPWR VPWR sky130_fd_sc_hd__fill_2
XFILLER_28_172 VGND VGND VPWR VPWR sky130_fd_sc_hd__fill_2
XFILLER_20_76 VGND VGND VPWR VPWR sky130_fd_sc_hd__decap_4
XANTENNA_input18_A chanx_right_in[6] VGND VGND VPWR VPWR sky130_fd_sc_hd__diode_2
XANTENNA_output86_A _71_/X VGND VGND VPWR VPWR sky130_fd_sc_hd__diode_2
XFILLER_13_3 VGND VGND VPWR VPWR sky130_fd_sc_hd__decap_12
XFILLER_6_12 VGND VGND VPWR VPWR sky130_fd_sc_hd__decap_12
XFILLER_6_56 VGND VGND VPWR VPWR sky130_fd_sc_hd__fill_1
XFILLER_15_87 VGND VGND VPWR VPWR sky130_fd_sc_hd__fill_2
XFILLER_15_54 VGND VGND VPWR VPWR sky130_fd_sc_hd__decap_12
XANTENNA_mux_right_track_2.mux_l2_in_1__A1 input44/X VGND VGND VPWR VPWR sky130_fd_sc_hd__diode_2
XPHY_192 VGND VPWR sky130_fd_sc_hd__tapvpwrvgnd_1
Xoutput75 _79_/X VGND VGND VPWR VPWR chany_top_out[11] sky130_fd_sc_hd__clkbuf_2
Xoutput86 _71_/X VGND VGND VPWR VPWR chany_top_out[3] sky130_fd_sc_hd__clkbuf_2
XPHY_181 VGND VPWR sky130_fd_sc_hd__tapvpwrvgnd_1
Xmux_right_track_38.mux_l1_in_0_ input44/X input31/X mux_right_track_38.mux_l1_in_0_/S
+ VGND VGND VPWR VPWR mux_right_track_38.mux_l1_in_0_/X sky130_fd_sc_hd__mux2_1
XPHY_170 VGND VPWR sky130_fd_sc_hd__tapvpwrvgnd_1
Xoutput64 _49_/X VGND VGND VPWR VPWR chanx_right_out[1] sky130_fd_sc_hd__clkbuf_2
Xoutput53 _48_/X VGND VGND VPWR VPWR chanx_right_out[0] sky130_fd_sc_hd__clkbuf_2
Xmem_right_track_20.sky130_fd_sc_hd__dfxtp_1_0_ clkbuf_2_3_0_mem_right_track_0.prog_clk/X
+ mux_right_track_18.mux_l2_in_0_/S VGND VGND VPWR VPWR mux_right_track_20.mux_l1_in_0_/S
+ sky130_fd_sc_hd__dfxtp_1
XFILLER_22_189 VGND VGND VPWR VPWR sky130_fd_sc_hd__fill_2
XFILLER_26_53 VGND VGND VPWR VPWR sky130_fd_sc_hd__decap_4
XFILLER_13_167 VGND VGND VPWR VPWR sky130_fd_sc_hd__decap_6
XFILLER_13_101 VGND VGND VPWR VPWR sky130_fd_sc_hd__decap_12
XFILLER_9_149 VGND VGND VPWR VPWR sky130_fd_sc_hd__decap_6
XFILLER_27_215 VGND VGND VPWR VPWR sky130_fd_sc_hd__fill_2
X_82_ _82_/A VGND VGND VPWR VPWR _82_/X sky130_fd_sc_hd__buf_1
XFILLER_10_115 VGND VGND VPWR VPWR sky130_fd_sc_hd__fill_2
XFILLER_10_126 VGND VGND VPWR VPWR sky130_fd_sc_hd__decap_8
X_65_ _65_/A VGND VGND VPWR VPWR _65_/X sky130_fd_sc_hd__clkbuf_1
XANTENNA_mux_top_track_0.mux_l1_in_0__A1 input51/X VGND VGND VPWR VPWR sky130_fd_sc_hd__diode_2
XFILLER_23_87 VGND VGND VPWR VPWR sky130_fd_sc_hd__fill_2
Xmem_right_track_26.sky130_fd_sc_hd__dfxtp_1_1_ clkbuf_2_0_0_mem_right_track_0.prog_clk/X
+ mux_right_track_26.mux_l1_in_0_/S VGND VGND VPWR VPWR mux_right_track_26.mux_l2_in_0_/S
+ sky130_fd_sc_hd__dfxtp_1
Xmem_right_track_8.sky130_fd_sc_hd__dfxtp_1_0_ clkbuf_2_0_0_mem_right_track_0.prog_clk/X
+ mux_right_track_6.mux_l3_in_0_/S VGND VGND VPWR VPWR mux_right_track_8.mux_l1_in_1_/S
+ sky130_fd_sc_hd__dfxtp_1
XANTENNA_input48_A right_bottom_grid_pin_5_ VGND VGND VPWR VPWR sky130_fd_sc_hd__diode_2
XFILLER_2_199 VGND VGND VPWR VPWR sky130_fd_sc_hd__fill_2
XFILLER_9_78 VGND VGND VPWR VPWR sky130_fd_sc_hd__decap_8
XFILLER_20_221 VGND VGND VPWR VPWR sky130_fd_sc_hd__fill_2
X_48_ _48_/A VGND VGND VPWR VPWR _48_/X sky130_fd_sc_hd__clkbuf_1
XFILLER_20_210 VGND VGND VPWR VPWR sky130_fd_sc_hd__fill_2
Xclkbuf_2_2_0_mem_right_track_0.prog_clk clkbuf_2_3_0_mem_right_track_0.prog_clk/A
+ VGND VGND VPWR VPWR clkbuf_2_2_0_mem_right_track_0.prog_clk/X sky130_fd_sc_hd__clkbuf_1
XFILLER_11_221 VGND VGND VPWR VPWR sky130_fd_sc_hd__fill_2
XFILLER_29_42 VGND VGND VPWR VPWR sky130_fd_sc_hd__decap_3
XFILLER_4_217 VGND VGND VPWR VPWR sky130_fd_sc_hd__fill_2
XFILLER_6_24 VGND VGND VPWR VPWR sky130_fd_sc_hd__decap_12
XFILLER_15_66 VGND VGND VPWR VPWR sky130_fd_sc_hd__decap_8
XFILLER_1_209 VGND VGND VPWR VPWR sky130_fd_sc_hd__fill_2
XPHY_193 VGND VPWR sky130_fd_sc_hd__tapvpwrvgnd_1
Xoutput76 _80_/X VGND VGND VPWR VPWR chany_top_out[12] sky130_fd_sc_hd__clkbuf_2
Xoutput87 _72_/X VGND VGND VPWR VPWR chany_top_out[4] sky130_fd_sc_hd__clkbuf_2
XANTENNA_input30_A chany_top_in[17] VGND VGND VPWR VPWR sky130_fd_sc_hd__diode_2
XFILLER_31_179 VGND VGND VPWR VPWR sky130_fd_sc_hd__decap_6
XPHY_182 VGND VPWR sky130_fd_sc_hd__tapvpwrvgnd_1
XFILLER_31_98 VGND VGND VPWR VPWR sky130_fd_sc_hd__decap_6
XFILLER_31_87 VGND VGND VPWR VPWR sky130_fd_sc_hd__fill_2
Xoutput54 _58_/X VGND VGND VPWR VPWR chanx_right_out[10] sky130_fd_sc_hd__clkbuf_2
XPHY_171 VGND VPWR sky130_fd_sc_hd__tapvpwrvgnd_1
XPHY_160 VGND VPWR sky130_fd_sc_hd__tapvpwrvgnd_1
Xoutput65 _50_/X VGND VGND VPWR VPWR chanx_right_out[2] sky130_fd_sc_hd__buf_2
XFILLER_16_198 VGND VGND VPWR VPWR sky130_fd_sc_hd__fill_2
XFILLER_16_110 VGND VGND VPWR VPWR sky130_fd_sc_hd__decap_4
XANTENNA_mux_right_track_6.mux_l1_in_1__A0 input42/X VGND VGND VPWR VPWR sky130_fd_sc_hd__diode_2
XFILLER_26_32 VGND VGND VPWR VPWR sky130_fd_sc_hd__decap_4
XFILLER_13_146 VGND VGND VPWR VPWR sky130_fd_sc_hd__decap_3
XFILLER_13_113 VGND VGND VPWR VPWR sky130_fd_sc_hd__decap_3
X_81_ _81_/A VGND VGND VPWR VPWR _81_/X sky130_fd_sc_hd__buf_1
XFILLER_8_172 VGND VGND VPWR VPWR sky130_fd_sc_hd__decap_4
X_64_ _64_/A VGND VGND VPWR VPWR _64_/X sky130_fd_sc_hd__clkbuf_1
XFILLER_24_208 VGND VGND VPWR VPWR sky130_fd_sc_hd__decap_4
Xmem_right_track_26.sky130_fd_sc_hd__dfxtp_1_0_ clkbuf_2_0_0_mem_right_track_0.prog_clk/X
+ mux_right_track_24.mux_l2_in_0_/S VGND VGND VPWR VPWR mux_right_track_26.mux_l1_in_0_/S
+ sky130_fd_sc_hd__dfxtp_1
XFILLER_0_59 VGND VGND VPWR VPWR sky130_fd_sc_hd__decap_12
XFILLER_0_15 VGND VGND VPWR VPWR sky130_fd_sc_hd__decap_12
XFILLER_3_3 VGND VGND VPWR VPWR sky130_fd_sc_hd__decap_12
X_47_ VGND VGND VPWR VPWR _47_/HI _47_/LO sky130_fd_sc_hd__conb_1
XFILLER_29_87 VGND VGND VPWR VPWR sky130_fd_sc_hd__fill_2
XFILLER_6_36 VGND VGND VPWR VPWR sky130_fd_sc_hd__decap_12
XFILLER_6_58 VGND VGND VPWR VPWR sky130_fd_sc_hd__decap_12
Xoutput77 _81_/X VGND VGND VPWR VPWR chany_top_out[13] sky130_fd_sc_hd__clkbuf_2
Xoutput88 _73_/X VGND VGND VPWR VPWR chany_top_out[5] sky130_fd_sc_hd__clkbuf_2
XANTENNA_input23_A chany_top_in[10] VGND VGND VPWR VPWR sky130_fd_sc_hd__diode_2
Xoutput55 _59_/X VGND VGND VPWR VPWR chanx_right_out[11] sky130_fd_sc_hd__clkbuf_2
XFILLER_25_199 VGND VGND VPWR VPWR sky130_fd_sc_hd__fill_1
XFILLER_25_144 VGND VGND VPWR VPWR sky130_fd_sc_hd__fill_2
Xoutput66 _51_/X VGND VGND VPWR VPWR chanx_right_out[3] sky130_fd_sc_hd__clkbuf_2
XFILLER_0_221 VGND VGND VPWR VPWR sky130_fd_sc_hd__fill_2
XPHY_183 VGND VPWR sky130_fd_sc_hd__tapvpwrvgnd_1
XPHY_172 VGND VPWR sky130_fd_sc_hd__tapvpwrvgnd_1
XPHY_161 VGND VPWR sky130_fd_sc_hd__tapvpwrvgnd_1
XPHY_150 VGND VPWR sky130_fd_sc_hd__tapvpwrvgnd_1
XFILLER_26_99 VGND VGND VPWR VPWR sky130_fd_sc_hd__fill_2
XFILLER_26_66 VGND VGND VPWR VPWR sky130_fd_sc_hd__fill_1
XANTENNA_mux_right_track_6.mux_l1_in_1__A1 input49/X VGND VGND VPWR VPWR sky130_fd_sc_hd__diode_2
XFILLER_13_158 VGND VGND VPWR VPWR sky130_fd_sc_hd__fill_2
X_80_ _80_/A VGND VGND VPWR VPWR _80_/X sky130_fd_sc_hd__buf_1
XFILLER_3_15 VGND VGND VPWR VPWR sky130_fd_sc_hd__decap_12
XFILLER_27_206 VGND VGND VPWR VPWR sky130_fd_sc_hd__decap_6
XFILLER_10_106 VGND VGND VPWR VPWR sky130_fd_sc_hd__decap_8
XFILLER_33_209 VGND VGND VPWR VPWR sky130_fd_sc_hd__fill_2
XFILLER_18_217 VGND VGND VPWR VPWR sky130_fd_sc_hd__fill_2
XFILLER_18_206 VGND VGND VPWR VPWR sky130_fd_sc_hd__decap_3
X_63_ _63_/A VGND VGND VPWR VPWR _63_/X sky130_fd_sc_hd__clkbuf_1
Xprog_clk_0_FTB00 prog_clk_0_E_in VGND VGND VPWR VPWR prog_clk_0_FTB00/X sky130_fd_sc_hd__buf_8
XANTENNA_mux_right_track_14.mux_l1_in_0__A0 input49/X VGND VGND VPWR VPWR sky130_fd_sc_hd__diode_2
XFILLER_0_27 VGND VGND VPWR VPWR sky130_fd_sc_hd__fill_2
XFILLER_29_3 VGND VGND VPWR VPWR sky130_fd_sc_hd__decap_12
X_46_ VGND VGND VPWR VPWR _46_/HI _46_/LO sky130_fd_sc_hd__conb_1
XFILLER_18_78 VGND VGND VPWR VPWR sky130_fd_sc_hd__fill_2
XFILLER_11_212 VGND VGND VPWR VPWR sky130_fd_sc_hd__fill_2
XFILLER_11_201 VGND VGND VPWR VPWR sky130_fd_sc_hd__decap_3
Xmux_right_track_10.mux_l2_in_0_ _37_/HI mux_right_track_10.mux_l1_in_0_/X mux_right_track_10.mux_l2_in_0_/S
+ VGND VGND VPWR VPWR mux_right_track_10.mux_l2_in_0_/X sky130_fd_sc_hd__mux2_1
XFILLER_7_216 VGND VGND VPWR VPWR sky130_fd_sc_hd__fill_2
X_29_ VGND VGND VPWR VPWR _29_/HI _29_/LO sky130_fd_sc_hd__conb_1
XFILLER_4_208 VGND VGND VPWR VPWR sky130_fd_sc_hd__decap_6
XFILLER_6_48 VGND VGND VPWR VPWR sky130_fd_sc_hd__decap_8
Xoutput78 _82_/X VGND VGND VPWR VPWR chany_top_out[14] sky130_fd_sc_hd__clkbuf_2
Xoutput89 _74_/X VGND VGND VPWR VPWR chany_top_out[6] sky130_fd_sc_hd__clkbuf_2
Xoutput56 _60_/X VGND VGND VPWR VPWR chanx_right_out[12] sky130_fd_sc_hd__clkbuf_2
XFILLER_31_23 VGND VGND VPWR VPWR sky130_fd_sc_hd__fill_2
XFILLER_25_178 VGND VGND VPWR VPWR sky130_fd_sc_hd__decap_3
XFILLER_25_123 VGND VGND VPWR VPWR sky130_fd_sc_hd__decap_12
Xoutput67 _52_/X VGND VGND VPWR VPWR chanx_right_out[4] sky130_fd_sc_hd__clkbuf_2
XANTENNA_output84_A _69_/X VGND VGND VPWR VPWR sky130_fd_sc_hd__diode_2
XPHY_184 VGND VPWR sky130_fd_sc_hd__tapvpwrvgnd_1
XFILLER_31_104 VGND VGND VPWR VPWR sky130_fd_sc_hd__fill_1
XPHY_173 VGND VPWR sky130_fd_sc_hd__tapvpwrvgnd_1
XPHY_162 VGND VPWR sky130_fd_sc_hd__tapvpwrvgnd_1
XPHY_151 VGND VPWR sky130_fd_sc_hd__tapvpwrvgnd_1
XPHY_140 VGND VPWR sky130_fd_sc_hd__tapvpwrvgnd_1
XANTENNA_input16_A chanx_right_in[4] VGND VGND VPWR VPWR sky130_fd_sc_hd__diode_2
XFILLER_11_3 VGND VGND VPWR VPWR sky130_fd_sc_hd__decap_12
XFILLER_30_192 VGND VGND VPWR VPWR sky130_fd_sc_hd__decap_3
XFILLER_22_126 VGND VGND VPWR VPWR sky130_fd_sc_hd__fill_2
XFILLER_22_115 VGND VGND VPWR VPWR sky130_fd_sc_hd__fill_2
XANTENNA_input8_A chanx_right_in[15] VGND VGND VPWR VPWR sky130_fd_sc_hd__diode_2
XFILLER_21_192 VGND VGND VPWR VPWR sky130_fd_sc_hd__fill_2
XFILLER_3_27 VGND VGND VPWR VPWR sky130_fd_sc_hd__fill_2
XANTENNA_mux_right_track_22.mux_l1_in_0__A0 input44/X VGND VGND VPWR VPWR sky130_fd_sc_hd__diode_2
XFILLER_12_170 VGND VGND VPWR VPWR sky130_fd_sc_hd__fill_1
XFILLER_12_58 VGND VGND VPWR VPWR sky130_fd_sc_hd__decap_12
XFILLER_5_111 VGND VGND VPWR VPWR sky130_fd_sc_hd__decap_12
XFILLER_5_144 VGND VGND VPWR VPWR sky130_fd_sc_hd__decap_12
XFILLER_32_221 VGND VGND VPWR VPWR sky130_fd_sc_hd__fill_2
X_62_ _62_/A VGND VGND VPWR VPWR _62_/X sky130_fd_sc_hd__clkbuf_1
XFILLER_23_221 VGND VGND VPWR VPWR sky130_fd_sc_hd__fill_2
XFILLER_23_210 VGND VGND VPWR VPWR sky130_fd_sc_hd__fill_2
XFILLER_23_46 VGND VGND VPWR VPWR sky130_fd_sc_hd__decap_8
XFILLER_4_70 VGND VGND VPWR VPWR sky130_fd_sc_hd__decap_12
XFILLER_1_180 VGND VGND VPWR VPWR sky130_fd_sc_hd__decap_12
XFILLER_9_15 VGND VGND VPWR VPWR sky130_fd_sc_hd__decap_12
X_45_ VGND VGND VPWR VPWR _45_/HI _45_/LO sky130_fd_sc_hd__conb_1
XANTENNA_input46_A right_bottom_grid_pin_1_ VGND VGND VPWR VPWR sky130_fd_sc_hd__diode_2
X_28_ VGND VGND VPWR VPWR _28_/HI _28_/LO sky130_fd_sc_hd__conb_1
XFILLER_28_121 VGND VGND VPWR VPWR sky130_fd_sc_hd__decap_12
XFILLER_20_58 VGND VGND VPWR VPWR sky130_fd_sc_hd__fill_2
XFILLER_19_198 VGND VGND VPWR VPWR sky130_fd_sc_hd__fill_2
XFILLER_19_121 VGND VGND VPWR VPWR sky130_fd_sc_hd__decap_12
Xoutput57 _61_/X VGND VGND VPWR VPWR chanx_right_out[13] sky130_fd_sc_hd__clkbuf_2
XFILLER_31_68 VGND VGND VPWR VPWR sky130_fd_sc_hd__fill_2
Xmem_right_track_12.sky130_fd_sc_hd__dfxtp_1_1_ clkbuf_2_1_0_mem_right_track_0.prog_clk/X
+ mux_right_track_12.mux_l1_in_0_/S VGND VGND VPWR VPWR mux_right_track_12.mux_l2_in_0_/S
+ sky130_fd_sc_hd__dfxtp_1
XFILLER_25_135 VGND VGND VPWR VPWR sky130_fd_sc_hd__decap_8
Xmux_top_track_0.sky130_fd_sc_hd__buf_4_0_ mux_top_track_0.mux_l2_in_0_/X VGND VGND
+ VPWR VPWR _68_/A sky130_fd_sc_hd__clkbuf_1
XFILLER_0_201 VGND VGND VPWR VPWR sky130_fd_sc_hd__fill_2
XPHY_185 VGND VPWR sky130_fd_sc_hd__tapvpwrvgnd_1
Xoutput79 _83_/X VGND VGND VPWR VPWR chany_top_out[15] sky130_fd_sc_hd__clkbuf_2
XPHY_174 VGND VPWR sky130_fd_sc_hd__tapvpwrvgnd_1
XPHY_163 VGND VPWR sky130_fd_sc_hd__tapvpwrvgnd_1
Xoutput68 _53_/X VGND VGND VPWR VPWR chanx_right_out[5] sky130_fd_sc_hd__clkbuf_2
XFILLER_24_190 VGND VGND VPWR VPWR sky130_fd_sc_hd__decap_12
XPHY_152 VGND VPWR sky130_fd_sc_hd__tapvpwrvgnd_1
Xmux_right_track_10.mux_l1_in_0_ input47/X input36/X mux_right_track_10.mux_l1_in_0_/S
+ VGND VGND VPWR VPWR mux_right_track_10.mux_l1_in_0_/X sky130_fd_sc_hd__mux2_1
XPHY_141 VGND VPWR sky130_fd_sc_hd__tapvpwrvgnd_1
Xmux_right_track_8.mux_l2_in_0_ mux_right_track_8.mux_l1_in_1_/X mux_right_track_8.mux_l1_in_0_/X
+ mux_right_track_8.mux_l2_in_0_/S VGND VGND VPWR VPWR mux_right_track_8.mux_l2_in_0_/X
+ sky130_fd_sc_hd__mux2_1
XPHY_130 VGND VPWR sky130_fd_sc_hd__tapvpwrvgnd_1
Xmux_top_track_0.mux_l2_in_0_ _32_/HI mux_top_track_0.mux_l1_in_0_/X mux_top_track_0.mux_l2_in_0_/S
+ VGND VGND VPWR VPWR mux_top_track_0.mux_l2_in_0_/X sky130_fd_sc_hd__mux2_1
XANTENNA_mux_right_track_30.mux_l1_in_0__A0 input49/X VGND VGND VPWR VPWR sky130_fd_sc_hd__diode_2
Xmux_right_track_22.mux_l2_in_0_ _44_/HI mux_right_track_22.mux_l1_in_0_/X mux_right_track_22.mux_l2_in_0_/S
+ VGND VGND VPWR VPWR mux_right_track_22.mux_l2_in_0_/X sky130_fd_sc_hd__mux2_1
XFILLER_9_109 VGND VGND VPWR VPWR sky130_fd_sc_hd__decap_3
Xmux_right_track_8.mux_l1_in_1_ _31_/HI input45/X mux_right_track_8.mux_l1_in_1_/S
+ VGND VGND VPWR VPWR mux_right_track_8.mux_l1_in_1_/X sky130_fd_sc_hd__mux2_1
XFILLER_12_15 VGND VGND VPWR VPWR sky130_fd_sc_hd__decap_12
X_61_ _61_/A VGND VGND VPWR VPWR _61_/X sky130_fd_sc_hd__clkbuf_1
XFILLER_5_123 VGND VGND VPWR VPWR sky130_fd_sc_hd__decap_12
XFILLER_5_156 VGND VGND VPWR VPWR sky130_fd_sc_hd__decap_12
XFILLER_4_82 VGND VGND VPWR VPWR sky130_fd_sc_hd__decap_12
XFILLER_14_222 VGND VGND VPWR VPWR sky130_fd_sc_hd__fill_1
XFILLER_2_115 VGND VGND VPWR VPWR sky130_fd_sc_hd__decap_12
XFILLER_9_27 VGND VGND VPWR VPWR sky130_fd_sc_hd__fill_2
X_44_ VGND VGND VPWR VPWR _44_/HI _44_/LO sky130_fd_sc_hd__conb_1
XANTENNA_input39_A chany_top_in[7] VGND VGND VPWR VPWR sky130_fd_sc_hd__diode_2
XFILLER_18_58 VGND VGND VPWR VPWR sky130_fd_sc_hd__decap_12
XFILLER_1_3 VGND VGND VPWR VPWR sky130_fd_sc_hd__decap_12
X_27_ VGND VGND VPWR VPWR _27_/HI _27_/LO sky130_fd_sc_hd__conb_1
Xmux_right_track_10.sky130_fd_sc_hd__buf_4_0_ mux_right_track_10.mux_l2_in_0_/X VGND
+ VGND VPWR VPWR _53_/A sky130_fd_sc_hd__clkbuf_1
XFILLER_28_199 VGND VGND VPWR VPWR sky130_fd_sc_hd__fill_2
XFILLER_28_133 VGND VGND VPWR VPWR sky130_fd_sc_hd__decap_12
XFILLER_20_15 VGND VGND VPWR VPWR sky130_fd_sc_hd__decap_12
XFILLER_19_144 VGND VGND VPWR VPWR sky130_fd_sc_hd__decap_12
XFILLER_19_133 VGND VGND VPWR VPWR sky130_fd_sc_hd__decap_3
XFILLER_3_210 VGND VGND VPWR VPWR sky130_fd_sc_hd__fill_2
XFILLER_3_221 VGND VGND VPWR VPWR sky130_fd_sc_hd__fill_2
XFILLER_10_70 VGND VGND VPWR VPWR sky130_fd_sc_hd__decap_12
Xmem_right_track_12.sky130_fd_sc_hd__dfxtp_1_0_ clkbuf_2_1_0_mem_right_track_0.prog_clk/X
+ mux_right_track_10.mux_l2_in_0_/S VGND VGND VPWR VPWR mux_right_track_12.mux_l1_in_0_/S
+ sky130_fd_sc_hd__dfxtp_1
XFILLER_15_15 VGND VGND VPWR VPWR sky130_fd_sc_hd__decap_12
Xoutput58 _62_/X VGND VGND VPWR VPWR chanx_right_out[14] sky130_fd_sc_hd__clkbuf_2
XPHY_186 VGND VPWR sky130_fd_sc_hd__tapvpwrvgnd_1
XFILLER_31_139 VGND VGND VPWR VPWR sky130_fd_sc_hd__decap_4
XPHY_175 VGND VPWR sky130_fd_sc_hd__tapvpwrvgnd_1
Xoutput69 _54_/X VGND VGND VPWR VPWR chanx_right_out[6] sky130_fd_sc_hd__clkbuf_2
XPHY_164 VGND VPWR sky130_fd_sc_hd__tapvpwrvgnd_1
XPHY_153 VGND VPWR sky130_fd_sc_hd__tapvpwrvgnd_1
XPHY_142 VGND VPWR sky130_fd_sc_hd__tapvpwrvgnd_1
XPHY_131 VGND VPWR sky130_fd_sc_hd__tapvpwrvgnd_1
XFILLER_16_169 VGND VGND VPWR VPWR sky130_fd_sc_hd__fill_2
XPHY_120 VGND VPWR sky130_fd_sc_hd__tapvpwrvgnd_1
XFILLER_30_183 VGND VGND VPWR VPWR sky130_fd_sc_hd__fill_1
XFILLER_30_172 VGND VGND VPWR VPWR sky130_fd_sc_hd__decap_4
XPHY_0 VGND VGND VPWR VPWR sky130_fd_sc_hd__decap_3
XFILLER_26_58 VGND VGND VPWR VPWR sky130_fd_sc_hd__decap_8
XFILLER_26_36 VGND VGND VPWR VPWR sky130_fd_sc_hd__fill_1
XFILLER_12_172 VGND VGND VPWR VPWR sky130_fd_sc_hd__decap_12
XANTENNA_input21_A chanx_right_in[9] VGND VGND VPWR VPWR sky130_fd_sc_hd__diode_2
XFILLER_8_143 VGND VGND VPWR VPWR sky130_fd_sc_hd__fill_2
XFILLER_8_154 VGND VGND VPWR VPWR sky130_fd_sc_hd__decap_12
Xmux_right_track_8.mux_l1_in_0_ input46/X input35/X mux_right_track_8.mux_l1_in_1_/S
+ VGND VGND VPWR VPWR mux_right_track_8.mux_l1_in_0_/X sky130_fd_sc_hd__mux2_1
XFILLER_12_27 VGND VGND VPWR VPWR sky130_fd_sc_hd__decap_12
XFILLER_32_201 VGND VGND VPWR VPWR sky130_fd_sc_hd__fill_2
Xmux_right_track_22.mux_l1_in_0_ input44/X input23/X mux_right_track_22.mux_l1_in_0_/S
+ VGND VGND VPWR VPWR mux_right_track_22.mux_l1_in_0_/X sky130_fd_sc_hd__mux2_1
Xmem_right_track_18.sky130_fd_sc_hd__dfxtp_1_1_ clkbuf_2_1_0_mem_right_track_0.prog_clk/X
+ mux_right_track_18.mux_l1_in_0_/S VGND VGND VPWR VPWR mux_right_track_18.mux_l2_in_0_/S
+ sky130_fd_sc_hd__dfxtp_1
X_60_ _60_/A VGND VGND VPWR VPWR _60_/X sky130_fd_sc_hd__clkbuf_1
XFILLER_5_135 VGND VGND VPWR VPWR sky130_fd_sc_hd__decap_8
XFILLER_5_168 VGND VGND VPWR VPWR sky130_fd_sc_hd__decap_12
Xmux_top_track_0.mux_l1_in_0_ input13/X input51/X mux_top_track_0.mux_l1_in_0_/S VGND
+ VGND VPWR VPWR mux_top_track_0.mux_l1_in_0_/X sky130_fd_sc_hd__mux2_1
Xmux_right_track_34.mux_l2_in_0_ _26_/HI mux_right_track_34.mux_l1_in_0_/X mux_right_track_34.mux_l2_in_0_/S
+ VGND VGND VPWR VPWR mux_right_track_34.mux_l2_in_0_/X sky130_fd_sc_hd__mux2_1
XFILLER_23_201 VGND VGND VPWR VPWR sky130_fd_sc_hd__decap_6
XFILLER_23_15 VGND VGND VPWR VPWR sky130_fd_sc_hd__decap_12
XFILLER_4_94 VGND VGND VPWR VPWR sky130_fd_sc_hd__decap_12
Xmux_right_track_8.sky130_fd_sc_hd__buf_4_0_ mux_right_track_8.mux_l2_in_0_/X VGND
+ VGND VPWR VPWR _52_/A sky130_fd_sc_hd__buf_1
XFILLER_2_127 VGND VGND VPWR VPWR sky130_fd_sc_hd__decap_12
X_43_ VGND VGND VPWR VPWR _43_/HI _43_/LO sky130_fd_sc_hd__conb_1
XFILLER_20_215 VGND VGND VPWR VPWR sky130_fd_sc_hd__fill_2
XFILLER_20_204 VGND VGND VPWR VPWR sky130_fd_sc_hd__decap_3
XFILLER_18_15 VGND VGND VPWR VPWR sky130_fd_sc_hd__decap_12
XFILLER_27_3 VGND VGND VPWR VPWR sky130_fd_sc_hd__decap_4
X_26_ VGND VGND VPWR VPWR _26_/HI _26_/LO sky130_fd_sc_hd__conb_1
XFILLER_28_145 VGND VGND VPWR VPWR sky130_fd_sc_hd__decap_12
XFILLER_28_101 VGND VGND VPWR VPWR sky130_fd_sc_hd__fill_2
XFILLER_20_27 VGND VGND VPWR VPWR sky130_fd_sc_hd__decap_12
XANTENNA_input51_A top_left_grid_pin_1_ VGND VGND VPWR VPWR sky130_fd_sc_hd__diode_2
XFILLER_19_156 VGND VGND VPWR VPWR sky130_fd_sc_hd__decap_4
XFILLER_10_82 VGND VGND VPWR VPWR sky130_fd_sc_hd__decap_12
Xmux_right_track_32.sky130_fd_sc_hd__buf_4_0_ mux_right_track_32.mux_l2_in_0_/X VGND
+ VGND VPWR VPWR _64_/A sky130_fd_sc_hd__clkbuf_1
XFILLER_15_27 VGND VGND VPWR VPWR sky130_fd_sc_hd__fill_2
Xoutput59 _63_/X VGND VGND VPWR VPWR chanx_right_out[15] sky130_fd_sc_hd__clkbuf_2
XPHY_187 VGND VPWR sky130_fd_sc_hd__tapvpwrvgnd_1
XFILLER_31_48 VGND VGND VPWR VPWR sky130_fd_sc_hd__decap_4
XFILLER_31_15 VGND VGND VPWR VPWR sky130_fd_sc_hd__decap_8
XPHY_176 VGND VPWR sky130_fd_sc_hd__tapvpwrvgnd_1
XPHY_165 VGND VPWR sky130_fd_sc_hd__tapvpwrvgnd_1
XFILLER_24_170 VGND VGND VPWR VPWR sky130_fd_sc_hd__fill_1
XPHY_154 VGND VPWR sky130_fd_sc_hd__tapvpwrvgnd_1
XPHY_143 VGND VPWR sky130_fd_sc_hd__tapvpwrvgnd_1
XPHY_132 VGND VPWR sky130_fd_sc_hd__tapvpwrvgnd_1
XFILLER_16_115 VGND VGND VPWR VPWR sky130_fd_sc_hd__decap_12
XPHY_121 VGND VPWR sky130_fd_sc_hd__tapvpwrvgnd_1
XPHY_110 VGND VPWR sky130_fd_sc_hd__tapvpwrvgnd_1
XFILLER_15_192 VGND VGND VPWR VPWR sky130_fd_sc_hd__fill_1
XPHY_1 VGND VGND VPWR VPWR sky130_fd_sc_hd__decap_3
XFILLER_26_15 VGND VGND VPWR VPWR sky130_fd_sc_hd__decap_3
XFILLER_32_91 VGND VGND VPWR VPWR sky130_fd_sc_hd__fill_2
Xmux_right_track_26.sky130_fd_sc_hd__buf_4_0_ mux_right_track_26.mux_l2_in_0_/X VGND
+ VGND VPWR VPWR _61_/A sky130_fd_sc_hd__clkbuf_1
XFILLER_16_70 VGND VGND VPWR VPWR sky130_fd_sc_hd__decap_4
XFILLER_12_184 VGND VGND VPWR VPWR sky130_fd_sc_hd__decap_12
XFILLER_12_162 VGND VGND VPWR VPWR sky130_fd_sc_hd__decap_8
XANTENNA_input14_A chanx_right_in[2] VGND VGND VPWR VPWR sky130_fd_sc_hd__diode_2
XFILLER_8_166 VGND VGND VPWR VPWR sky130_fd_sc_hd__decap_4
XANTENNA_input6_A chanx_right_in[13] VGND VGND VPWR VPWR sky130_fd_sc_hd__diode_2
XFILLER_12_39 VGND VGND VPWR VPWR sky130_fd_sc_hd__decap_12
XFILLER_26_221 VGND VGND VPWR VPWR sky130_fd_sc_hd__fill_2
XFILLER_26_210 VGND VGND VPWR VPWR sky130_fd_sc_hd__fill_2
Xmem_right_track_18.sky130_fd_sc_hd__dfxtp_1_0_ clkbuf_2_0_0_mem_right_track_0.prog_clk/X
+ mux_right_track_16.mux_l2_in_0_/S VGND VGND VPWR VPWR mux_right_track_18.mux_l1_in_0_/S
+ sky130_fd_sc_hd__dfxtp_1
XFILLER_17_221 VGND VGND VPWR VPWR sky130_fd_sc_hd__fill_2
XFILLER_32_213 VGND VGND VPWR VPWR sky130_fd_sc_hd__decap_4
XFILLER_4_51 VGND VGND VPWR VPWR sky130_fd_sc_hd__decap_6
XFILLER_23_27 VGND VGND VPWR VPWR sky130_fd_sc_hd__fill_2
XFILLER_14_213 VGND VGND VPWR VPWR sky130_fd_sc_hd__fill_2
XFILLER_2_139 VGND VGND VPWR VPWR sky130_fd_sc_hd__decap_12
XFILLER_2_106 VGND VGND VPWR VPWR sky130_fd_sc_hd__decap_8
X_42_ VGND VGND VPWR VPWR _42_/HI _42_/LO sky130_fd_sc_hd__conb_1
XFILLER_1_194 VGND VGND VPWR VPWR sky130_fd_sc_hd__fill_2
Xmem_right_track_30.sky130_fd_sc_hd__dfxtp_1_1_ clkbuf_2_1_0_mem_right_track_0.prog_clk/X
+ mux_right_track_30.mux_l1_in_0_/S VGND VGND VPWR VPWR mux_right_track_30.mux_l2_in_0_/S
+ sky130_fd_sc_hd__dfxtp_1
XFILLER_18_27 VGND VGND VPWR VPWR sky130_fd_sc_hd__decap_12
Xmux_right_track_34.mux_l1_in_0_ input42/X input29/X mux_right_track_34.mux_l1_in_0_/S
+ VGND VGND VPWR VPWR mux_right_track_34.mux_l1_in_0_/X sky130_fd_sc_hd__mux2_1
X_25_ VGND VGND VPWR VPWR _25_/HI _25_/LO sky130_fd_sc_hd__conb_1
XFILLER_29_15 VGND VGND VPWR VPWR sky130_fd_sc_hd__decap_12
XFILLER_20_39 VGND VGND VPWR VPWR sky130_fd_sc_hd__decap_12
XFILLER_1_30 VGND VGND VPWR VPWR sky130_fd_sc_hd__decap_12
XFILLER_28_157 VGND VGND VPWR VPWR sky130_fd_sc_hd__decap_12
XFILLER_28_113 VGND VGND VPWR VPWR sky130_fd_sc_hd__fill_1
XANTENNA_input44_A right_bottom_grid_pin_15_ VGND VGND VPWR VPWR sky130_fd_sc_hd__diode_2
XFILLER_3_201 VGND VGND VPWR VPWR sky130_fd_sc_hd__decap_3
XFILLER_10_94 VGND VGND VPWR VPWR sky130_fd_sc_hd__decap_12
XFILLER_25_105 VGND VGND VPWR VPWR sky130_fd_sc_hd__fill_2
XANTENNA_mux_right_track_24.mux_l1_in_1__A1 input45/X VGND VGND VPWR VPWR sky130_fd_sc_hd__diode_2
XFILLER_33_160 VGND VGND VPWR VPWR sky130_fd_sc_hd__fill_2
XFILLER_31_27 VGND VGND VPWR VPWR sky130_fd_sc_hd__fill_2
XFILLER_16_149 VGND VGND VPWR VPWR sky130_fd_sc_hd__decap_12
XFILLER_16_127 VGND VGND VPWR VPWR sky130_fd_sc_hd__decap_4
XFILLER_0_215 VGND VGND VPWR VPWR sky130_fd_sc_hd__fill_2
XFILLER_0_204 VGND VGND VPWR VPWR sky130_fd_sc_hd__decap_3
XPHY_100 VGND VPWR sky130_fd_sc_hd__tapvpwrvgnd_1
XPHY_188 VGND VPWR sky130_fd_sc_hd__tapvpwrvgnd_1
XPHY_177 VGND VPWR sky130_fd_sc_hd__tapvpwrvgnd_1
XPHY_166 VGND VPWR sky130_fd_sc_hd__tapvpwrvgnd_1
XPHY_155 VGND VPWR sky130_fd_sc_hd__tapvpwrvgnd_1
XANTENNA_mux_right_track_0.mux_l1_in_0__A0 input46/X VGND VGND VPWR VPWR sky130_fd_sc_hd__diode_2
XPHY_144 VGND VPWR sky130_fd_sc_hd__tapvpwrvgnd_1
XPHY_133 VGND VPWR sky130_fd_sc_hd__tapvpwrvgnd_1
XPHY_122 VGND VPWR sky130_fd_sc_hd__tapvpwrvgnd_1
XPHY_111 VGND VPWR sky130_fd_sc_hd__tapvpwrvgnd_1
XPHY_2 VGND VGND VPWR VPWR sky130_fd_sc_hd__decap_3
XFILLER_26_27 VGND VGND VPWR VPWR sky130_fd_sc_hd__fill_2
XFILLER_21_196 VGND VGND VPWR VPWR sky130_fd_sc_hd__decap_4
XFILLER_21_141 VGND VGND VPWR VPWR sky130_fd_sc_hd__fill_2
XFILLER_12_196 VGND VGND VPWR VPWR sky130_fd_sc_hd__decap_4
XFILLER_8_112 VGND VGND VPWR VPWR sky130_fd_sc_hd__fill_2
XFILLER_8_178 VGND VGND VPWR VPWR sky130_fd_sc_hd__fill_2
XFILLER_8_189 VGND VGND VPWR VPWR sky130_fd_sc_hd__decap_12
XFILLER_27_81 VGND VGND VPWR VPWR sky130_fd_sc_hd__decap_4
X_41_ VGND VGND VPWR VPWR _41_/HI _41_/LO sky130_fd_sc_hd__conb_1
XFILLER_18_39 VGND VGND VPWR VPWR sky130_fd_sc_hd__decap_12
XFILLER_11_217 VGND VGND VPWR VPWR sky130_fd_sc_hd__fill_2
Xmem_right_track_30.sky130_fd_sc_hd__dfxtp_1_0_ clkbuf_2_1_0_mem_right_track_0.prog_clk/X
+ mux_right_track_28.mux_l2_in_0_/S VGND VGND VPWR VPWR mux_right_track_30.mux_l1_in_0_/S
+ sky130_fd_sc_hd__dfxtp_1
X_24_ VGND VGND VPWR VPWR _24_/HI _24_/LO sky130_fd_sc_hd__conb_1
XFILLER_1_42 VGND VGND VPWR VPWR sky130_fd_sc_hd__decap_12