* NGSPICE file created from sb_0__1_.ext - technology: sky130A

* Black-box entry subcircuit for sky130_fd_sc_hd__tapvpwrvgnd_1 abstract view
.subckt sky130_fd_sc_hd__tapvpwrvgnd_1 VGND VPWR
.ends

* Black-box entry subcircuit for sky130_fd_sc_hd__dfxtp_1 abstract view
.subckt sky130_fd_sc_hd__dfxtp_1 CLK D VGND VNB VPB VPWR Q
.ends

* Black-box entry subcircuit for sky130_fd_sc_hd__diode_2 abstract view
.subckt sky130_fd_sc_hd__diode_2 DIODE VGND VNB VPB VPWR
.ends

* Black-box entry subcircuit for sky130_fd_sc_hd__fill_2 abstract view
.subckt sky130_fd_sc_hd__fill_2 VGND VNB VPB VPWR
.ends

* Black-box entry subcircuit for sky130_fd_sc_hd__decap_6 abstract view
.subckt sky130_fd_sc_hd__decap_6 VGND VNB VPB VPWR
.ends

* Black-box entry subcircuit for sky130_fd_sc_hd__fill_1 abstract view
.subckt sky130_fd_sc_hd__fill_1 VGND VNB VPB VPWR
.ends

* Black-box entry subcircuit for sky130_fd_sc_hd__decap_4 abstract view
.subckt sky130_fd_sc_hd__decap_4 VGND VNB VPB VPWR
.ends

* Black-box entry subcircuit for sky130_fd_sc_hd__mux2_1 abstract view
.subckt sky130_fd_sc_hd__mux2_1 A0 A1 S VGND VNB VPB VPWR X
.ends

* Black-box entry subcircuit for sky130_fd_sc_hd__decap_3 abstract view
.subckt sky130_fd_sc_hd__decap_3 VGND VNB VPB VPWR
.ends

* Black-box entry subcircuit for sky130_fd_sc_hd__buf_4 abstract view
.subckt sky130_fd_sc_hd__buf_4 A VGND VNB VPB VPWR X
.ends

* Black-box entry subcircuit for sky130_fd_sc_hd__conb_1 abstract view
.subckt sky130_fd_sc_hd__conb_1 VGND VNB VPB VPWR HI LO
.ends

* Black-box entry subcircuit for sky130_ef_sc_hd__decap_12 abstract view
.subckt sky130_ef_sc_hd__decap_12 VGND VPWR VPB VNB
.ends

* Black-box entry subcircuit for sky130_fd_sc_hd__buf_2 abstract view
.subckt sky130_fd_sc_hd__buf_2 A VGND VNB VPB VPWR X
.ends

* Black-box entry subcircuit for sky130_fd_sc_hd__decap_8 abstract view
.subckt sky130_fd_sc_hd__decap_8 VGND VNB VPB VPWR
.ends

* Black-box entry subcircuit for sky130_fd_sc_hd__buf_8 abstract view
.subckt sky130_fd_sc_hd__buf_8 A VGND VNB VPB VPWR X
.ends

.subckt sb_0__1_ VGND VPWR bottom_left_grid_pin_1_ ccff_head ccff_tail chanx_right_in[0]
+ chanx_right_in[10] chanx_right_in[11] chanx_right_in[12] chanx_right_in[13] chanx_right_in[14]
+ chanx_right_in[15] chanx_right_in[16] chanx_right_in[17] chanx_right_in[18] chanx_right_in[19]
+ chanx_right_in[1] chanx_right_in[2] chanx_right_in[3] chanx_right_in[4] chanx_right_in[5]
+ chanx_right_in[6] chanx_right_in[7] chanx_right_in[8] chanx_right_in[9] chanx_right_out[0]
+ chanx_right_out[10] chanx_right_out[11] chanx_right_out[12] chanx_right_out[13]
+ chanx_right_out[14] chanx_right_out[15] chanx_right_out[16] chanx_right_out[17]
+ chanx_right_out[18] chanx_right_out[19] chanx_right_out[1] chanx_right_out[2] chanx_right_out[3]
+ chanx_right_out[4] chanx_right_out[5] chanx_right_out[6] chanx_right_out[7] chanx_right_out[8]
+ chanx_right_out[9] chany_bottom_in[0] chany_bottom_in[10] chany_bottom_in[11] chany_bottom_in[12]
+ chany_bottom_in[13] chany_bottom_in[14] chany_bottom_in[15] chany_bottom_in[16]
+ chany_bottom_in[17] chany_bottom_in[18] chany_bottom_in[19] chany_bottom_in[1] chany_bottom_in[2]
+ chany_bottom_in[3] chany_bottom_in[4] chany_bottom_in[5] chany_bottom_in[6] chany_bottom_in[7]
+ chany_bottom_in[8] chany_bottom_in[9] chany_bottom_out[0] chany_bottom_out[10] chany_bottom_out[11]
+ chany_bottom_out[12] chany_bottom_out[13] chany_bottom_out[14] chany_bottom_out[15]
+ chany_bottom_out[16] chany_bottom_out[17] chany_bottom_out[18] chany_bottom_out[19]
+ chany_bottom_out[1] chany_bottom_out[2] chany_bottom_out[3] chany_bottom_out[4]
+ chany_bottom_out[5] chany_bottom_out[6] chany_bottom_out[7] chany_bottom_out[8]
+ chany_bottom_out[9] chany_top_in[0] chany_top_in[10] chany_top_in[11] chany_top_in[12]
+ chany_top_in[13] chany_top_in[14] chany_top_in[15] chany_top_in[16] chany_top_in[17]
+ chany_top_in[18] chany_top_in[19] chany_top_in[1] chany_top_in[2] chany_top_in[3]
+ chany_top_in[4] chany_top_in[5] chany_top_in[6] chany_top_in[7] chany_top_in[8]
+ chany_top_in[9] chany_top_out[0] chany_top_out[10] chany_top_out[11] chany_top_out[12]
+ chany_top_out[13] chany_top_out[14] chany_top_out[15] chany_top_out[16] chany_top_out[17]
+ chany_top_out[18] chany_top_out[19] chany_top_out[1] chany_top_out[2] chany_top_out[3]
+ chany_top_out[4] chany_top_out[5] chany_top_out[6] chany_top_out[7] chany_top_out[8]
+ chany_top_out[9] prog_clk_0_E_in right_bottom_grid_pin_34_ right_bottom_grid_pin_35_
+ right_bottom_grid_pin_36_ right_bottom_grid_pin_37_ right_bottom_grid_pin_38_ right_bottom_grid_pin_39_
+ right_bottom_grid_pin_40_ right_bottom_grid_pin_41_ top_left_grid_pin_1_
XTAP_188 VGND VPWR sky130_fd_sc_hd__tapvpwrvgnd_1
XTAP_177 VGND VPWR sky130_fd_sc_hd__tapvpwrvgnd_1
Xmem_right_track_20.sky130_fd_sc_hd__dfxtp_1_1_ prog_clk_0_FTB00/X mux_right_track_20.mux_l1_in_1_/S
+ VGND VGND VPWR VPWR mux_right_track_20.mux_l2_in_0_/S sky130_fd_sc_hd__dfxtp_1
XANTENNA_mem_right_track_0.sky130_fd_sc_hd__dfxtp_1_0__CLK prog_clk_0_FTB00/X VGND
+ VGND VPWR VPWR sky130_fd_sc_hd__diode_2
XFILLER_22_199 VGND VGND VPWR VPWR sky130_fd_sc_hd__fill_2
Xmem_right_track_2.sky130_fd_sc_hd__dfxtp_1_0_ prog_clk_0_FTB00/X mux_right_track_0.mux_l3_in_0_/S
+ VGND VGND VPWR VPWR mux_right_track_2.mux_l1_in_3_/S sky130_fd_sc_hd__dfxtp_1
XFILLER_26_52 VGND VGND VPWR VPWR sky130_fd_sc_hd__decap_6
XFILLER_26_85 VGND VGND VPWR VPWR sky130_fd_sc_hd__fill_1
XFILLER_9_126 VGND VGND VPWR VPWR sky130_fd_sc_hd__decap_4
Xmux_bottom_track_3.mux_l1_in_1_ chanx_right_in[11] chanx_right_in[4] mux_bottom_track_3.mux_l1_in_1_/S
+ VGND VGND VPWR VPWR mux_bottom_track_3.mux_l1_in_1_/X sky130_fd_sc_hd__mux2_1
XFILLER_8_181 VGND VGND VPWR VPWR sky130_fd_sc_hd__fill_1
XFILLER_18_203 VGND VGND VPWR VPWR sky130_fd_sc_hd__fill_2
XFILLER_5_173 VGND VGND VPWR VPWR sky130_fd_sc_hd__decap_3
XFILLER_5_140 VGND VGND VPWR VPWR sky130_fd_sc_hd__fill_2
XANTENNA__124__A chany_bottom_in[17] VGND VGND VPWR VPWR sky130_fd_sc_hd__diode_2
XANTENNA_mem_top_track_32.sky130_fd_sc_hd__dfxtp_1_1__CLK prog_clk_0_FTB00/X VGND
+ VGND VPWR VPWR sky130_fd_sc_hd__diode_2
XANTENNA_mux_right_track_4.mux_l1_in_0__A1 chany_top_in[1] VGND VGND VPWR VPWR sky130_fd_sc_hd__diode_2
Xmux_right_track_36.sky130_fd_sc_hd__buf_4_0_ mux_right_track_36.mux_l2_in_0_/X VGND
+ VGND VPWR VPWR _084_/A sky130_fd_sc_hd__buf_4
XFILLER_15_206 VGND VGND VPWR VPWR sky130_fd_sc_hd__fill_2
XFILLER_15_217 VGND VGND VPWR VPWR sky130_fd_sc_hd__fill_2
XANTENNA_mux_top_track_0.mux_l1_in_0__A0 chanx_right_in[1] VGND VGND VPWR VPWR sky130_fd_sc_hd__diode_2
X_062_ VGND VGND VPWR VPWR _062_/HI _062_/LO sky130_fd_sc_hd__conb_1
XFILLER_2_121 VGND VGND VPWR VPWR sky130_fd_sc_hd__decap_4
Xmem_right_track_8.sky130_fd_sc_hd__dfxtp_1_1_ prog_clk_0_FTB00/X mux_right_track_8.mux_l1_in_0_/S
+ VGND VGND VPWR VPWR mux_right_track_8.mux_l2_in_1_/S sky130_fd_sc_hd__dfxtp_1
XFILLER_0_57 VGND VPWR VPWR VGND sky130_ef_sc_hd__decap_12
XANTENNA__119__A chany_bottom_in[12] VGND VGND VPWR VPWR sky130_fd_sc_hd__diode_2
XFILLER_9_66 VGND VPWR VPWR VGND sky130_ef_sc_hd__decap_12
XFILLER_9_99 VGND VGND VPWR VPWR sky130_fd_sc_hd__fill_2
XANTENNA_mem_right_track_6.sky130_fd_sc_hd__dfxtp_1_2__CLK prog_clk_0_FTB00/X VGND
+ VGND VPWR VPWR sky130_fd_sc_hd__diode_2
XANTENNA_mux_right_track_2.mux_l1_in_2__A1 right_bottom_grid_pin_39_ VGND VGND VPWR
+ VPWR sky130_fd_sc_hd__diode_2
XFILLER_18_53 VGND VGND VPWR VPWR sky130_fd_sc_hd__fill_2
XFILLER_18_64 VGND VGND VPWR VPWR sky130_fd_sc_hd__fill_2
X_114_ _114_/A VGND VGND VPWR VPWR chany_top_out[8] sky130_fd_sc_hd__buf_2
X_045_ VGND VGND VPWR VPWR _045_/HI _045_/LO sky130_fd_sc_hd__conb_1
XANTENNA_mem_top_track_24.sky130_fd_sc_hd__dfxtp_1_2__CLK prog_clk_0_FTB00/X VGND
+ VGND VPWR VPWR sky130_fd_sc_hd__diode_2
Xmem_bottom_track_25.sky130_fd_sc_hd__dfxtp_1_2_ prog_clk_0_FTB00/X mux_bottom_track_25.mux_l2_in_1_/S
+ VGND VGND VPWR VPWR mux_bottom_track_25.mux_l3_in_0_/S sky130_fd_sc_hd__dfxtp_1
Xmux_bottom_track_17.mux_l1_in_0_ chany_top_in[17] chany_top_in[8] mux_bottom_track_17.mux_l1_in_1_/S
+ VGND VGND VPWR VPWR mux_bottom_track_17.mux_l1_in_0_/X sky130_fd_sc_hd__mux2_1
XFILLER_29_106 VGND VGND VPWR VPWR sky130_fd_sc_hd__fill_2
XFILLER_29_63 VGND VGND VPWR VPWR sky130_fd_sc_hd__fill_2
XFILLER_28_150 VGND VGND VPWR VPWR sky130_fd_sc_hd__fill_2
XFILLER_28_172 VGND VGND VPWR VPWR sky130_fd_sc_hd__fill_2
XFILLER_28_194 VGND VGND VPWR VPWR sky130_fd_sc_hd__fill_2
XANTENNA_mux_right_track_0.mux_l1_in_1__S mux_right_track_0.mux_l1_in_2_/S VGND VGND
+ VPWR VPWR sky130_fd_sc_hd__diode_2
XFILLER_13_3 VGND VPWR VPWR VGND sky130_ef_sc_hd__decap_12
XFILLER_15_54 VGND VGND VPWR VPWR sky130_fd_sc_hd__fill_2
XFILLER_15_76 VGND VGND VPWR VPWR sky130_fd_sc_hd__fill_2
XFILLER_15_87 VGND VGND VPWR VPWR sky130_fd_sc_hd__decap_3
Xmux_bottom_track_3.sky130_fd_sc_hd__buf_4_0_ mux_bottom_track_3.mux_l3_in_0_/X VGND
+ VGND VPWR VPWR _087_/A sky130_fd_sc_hd__buf_4
XANTENNA_mux_bottom_track_3.mux_l1_in_1__A0 chanx_right_in[11] VGND VGND VPWR VPWR
+ sky130_fd_sc_hd__diode_2
XFILLER_31_167 VGND VGND VPWR VPWR sky130_fd_sc_hd__fill_1
XFILLER_31_145 VGND VGND VPWR VPWR sky130_fd_sc_hd__fill_2
XFILLER_31_123 VGND VGND VPWR VPWR sky130_fd_sc_hd__fill_2
XFILLER_31_189 VGND VGND VPWR VPWR sky130_fd_sc_hd__fill_2
XTAP_189 VGND VPWR sky130_fd_sc_hd__tapvpwrvgnd_1
XTAP_178 VGND VPWR sky130_fd_sc_hd__tapvpwrvgnd_1
XTAP_101 VGND VPWR sky130_fd_sc_hd__tapvpwrvgnd_1
XTAP_112 VGND VPWR sky130_fd_sc_hd__tapvpwrvgnd_1
XTAP_123 VGND VPWR sky130_fd_sc_hd__tapvpwrvgnd_1
XTAP_134 VGND VPWR sky130_fd_sc_hd__tapvpwrvgnd_1
XTAP_145 VGND VPWR sky130_fd_sc_hd__tapvpwrvgnd_1
XTAP_156 VGND VPWR sky130_fd_sc_hd__tapvpwrvgnd_1
XTAP_167 VGND VPWR sky130_fd_sc_hd__tapvpwrvgnd_1
Xmem_right_track_20.sky130_fd_sc_hd__dfxtp_1_0_ prog_clk_0_FTB00/X mux_right_track_18.mux_l2_in_0_/S
+ VGND VGND VPWR VPWR mux_right_track_20.mux_l1_in_1_/S sky130_fd_sc_hd__dfxtp_1
XANTENNA_mem_right_track_24.sky130_fd_sc_hd__dfxtp_1_0__CLK prog_clk_0_FTB00/X VGND
+ VGND VPWR VPWR sky130_fd_sc_hd__diode_2
XFILLER_13_167 VGND VGND VPWR VPWR sky130_fd_sc_hd__fill_1
XFILLER_13_178 VGND VGND VPWR VPWR sky130_fd_sc_hd__fill_2
XFILLER_13_189 VGND VGND VPWR VPWR sky130_fd_sc_hd__fill_2
XFILLER_3_57 VGND VPWR VPWR VGND sky130_ef_sc_hd__decap_12
Xmux_bottom_track_3.mux_l1_in_0_ chany_top_in[13] chany_top_in[4] mux_bottom_track_3.mux_l1_in_1_/S
+ VGND VGND VPWR VPWR mux_bottom_track_3.mux_l1_in_0_/X sky130_fd_sc_hd__mux2_1
XFILLER_10_104 VGND VGND VPWR VPWR sky130_fd_sc_hd__fill_2
XFILLER_10_115 VGND VGND VPWR VPWR sky130_fd_sc_hd__decap_4
XANTENNA_mux_right_track_10.mux_l2_in_0__A0 right_bottom_grid_pin_35_ VGND VGND VPWR
+ VPWR sky130_fd_sc_hd__diode_2
XFILLER_5_196 VGND VGND VPWR VPWR sky130_fd_sc_hd__fill_2
XFILLER_5_185 VGND VGND VPWR VPWR sky130_fd_sc_hd__fill_2
XANTENNA_mem_right_track_16.sky130_fd_sc_hd__dfxtp_1_1__CLK prog_clk_0_FTB00/X VGND
+ VGND VPWR VPWR sky130_fd_sc_hd__diode_2
XANTENNA_mem_bottom_track_3.sky130_fd_sc_hd__dfxtp_1_1__CLK prog_clk_0_FTB00/X VGND
+ VGND VPWR VPWR sky130_fd_sc_hd__diode_2
XANTENNA_mux_top_track_0.mux_l1_in_0__A1 top_left_grid_pin_1_ VGND VGND VPWR VPWR
+ sky130_fd_sc_hd__diode_2
XFILLER_23_43 VGND VGND VPWR VPWR sky130_fd_sc_hd__fill_2
XFILLER_23_54 VGND VGND VPWR VPWR sky130_fd_sc_hd__fill_2
X_061_ VGND VGND VPWR VPWR _061_/HI _061_/LO sky130_fd_sc_hd__conb_1
Xmem_right_track_26.sky130_fd_sc_hd__dfxtp_1_1_ prog_clk_0_FTB00/X mux_right_track_26.mux_l1_in_0_/S
+ VGND VGND VPWR VPWR mux_right_track_26.mux_l2_in_0_/S sky130_fd_sc_hd__dfxtp_1
XFILLER_2_199 VGND VGND VPWR VPWR sky130_fd_sc_hd__fill_2
XFILLER_2_177 VGND VGND VPWR VPWR sky130_fd_sc_hd__fill_2
XFILLER_0_69 VGND VPWR VPWR VGND sky130_ef_sc_hd__decap_12
Xmem_right_track_8.sky130_fd_sc_hd__dfxtp_1_0_ prog_clk_0_FTB00/X mux_right_track_6.mux_l3_in_0_/S
+ VGND VGND VPWR VPWR mux_right_track_8.mux_l1_in_0_/S sky130_fd_sc_hd__dfxtp_1
XFILLER_9_78 VGND VGND VPWR VPWR sky130_fd_sc_hd__decap_8
XANTENNA_mem_top_track_0.sky130_fd_sc_hd__dfxtp_1_2__CLK prog_clk_0_FTB00/X VGND VGND
+ VPWR VPWR sky130_fd_sc_hd__diode_2
X_113_ chany_bottom_in[6] VGND VGND VPWR VPWR chany_top_out[7] sky130_fd_sc_hd__buf_2
XFILLER_11_210 VGND VGND VPWR VPWR sky130_fd_sc_hd__fill_2
XFILLER_11_221 VGND VGND VPWR VPWR sky130_fd_sc_hd__fill_2
X_044_ VGND VGND VPWR VPWR _044_/HI _044_/LO sky130_fd_sc_hd__conb_1
Xmem_bottom_track_25.sky130_fd_sc_hd__dfxtp_1_1_ prog_clk_0_FTB00/X mux_bottom_track_25.mux_l1_in_1_/S
+ VGND VGND VPWR VPWR mux_bottom_track_25.mux_l2_in_1_/S sky130_fd_sc_hd__dfxtp_1
XFILLER_29_118 VGND VGND VPWR VPWR sky130_fd_sc_hd__fill_2
XFILLER_4_217 VGND VGND VPWR VPWR sky130_fd_sc_hd__fill_2
XFILLER_20_55 VGND VGND VPWR VPWR sky130_fd_sc_hd__decap_8
XANTENNA_mem_top_track_0.sky130_fd_sc_hd__dfxtp_1_0__D ccff_head VGND VGND VPWR VPWR
+ sky130_fd_sc_hd__diode_2
XFILLER_19_162 VGND VGND VPWR VPWR sky130_fd_sc_hd__fill_2
XFILLER_15_66 VGND VGND VPWR VPWR sky130_fd_sc_hd__fill_2
XFILLER_31_54 VGND VGND VPWR VPWR sky130_fd_sc_hd__fill_2
XFILLER_31_43 VGND VGND VPWR VPWR sky130_fd_sc_hd__fill_2
XFILLER_15_99 VGND VGND VPWR VPWR sky130_fd_sc_hd__fill_2
XANTENNA_mux_bottom_track_3.mux_l1_in_1__A1 chanx_right_in[4] VGND VGND VPWR VPWR
+ sky130_fd_sc_hd__diode_2
XFILLER_16_121 VGND VGND VPWR VPWR sky130_fd_sc_hd__fill_2
XFILLER_16_132 VGND VGND VPWR VPWR sky130_fd_sc_hd__fill_2
XTAP_179 VGND VPWR sky130_fd_sc_hd__tapvpwrvgnd_1
XTAP_102 VGND VPWR sky130_fd_sc_hd__tapvpwrvgnd_1
XTAP_113 VGND VPWR sky130_fd_sc_hd__tapvpwrvgnd_1
XTAP_124 VGND VPWR sky130_fd_sc_hd__tapvpwrvgnd_1
XTAP_135 VGND VPWR sky130_fd_sc_hd__tapvpwrvgnd_1
XTAP_146 VGND VPWR sky130_fd_sc_hd__tapvpwrvgnd_1
XTAP_157 VGND VPWR sky130_fd_sc_hd__tapvpwrvgnd_1
XTAP_168 VGND VPWR sky130_fd_sc_hd__tapvpwrvgnd_1
XANTENNA_mux_right_track_6.mux_l1_in_1__A0 right_bottom_grid_pin_37_ VGND VGND VPWR
+ VPWR sky130_fd_sc_hd__diode_2
Xmem_bottom_track_3.sky130_fd_sc_hd__dfxtp_1_2_ prog_clk_0_FTB00/X mux_bottom_track_3.mux_l2_in_1_/S
+ VGND VGND VPWR VPWR mux_bottom_track_3.mux_l3_in_0_/S sky130_fd_sc_hd__dfxtp_1
XFILLER_26_65 VGND VGND VPWR VPWR sky130_fd_sc_hd__fill_1
XFILLER_3_69 VGND VPWR VPWR VGND sky130_ef_sc_hd__decap_12
XFILLER_8_150 VGND VGND VPWR VPWR sky130_fd_sc_hd__fill_2
XFILLER_10_138 VGND VGND VPWR VPWR sky130_fd_sc_hd__fill_2
Xmux_right_track_10.mux_l3_in_0_ mux_right_track_10.mux_l2_in_1_/X mux_right_track_10.mux_l2_in_0_/X
+ mux_right_track_10.mux_l3_in_0_/S VGND VGND VPWR VPWR mux_right_track_10.mux_l3_in_0_/X
+ sky130_fd_sc_hd__mux2_1
Xmem_right_track_26.sky130_fd_sc_hd__dfxtp_1_0_ prog_clk_0_FTB00/X mux_right_track_24.mux_l3_in_0_/S
+ VGND VGND VPWR VPWR mux_right_track_26.mux_l1_in_0_/S sky130_fd_sc_hd__dfxtp_1
XFILLER_23_33 VGND VGND VPWR VPWR sky130_fd_sc_hd__fill_1
X_060_ VGND VGND VPWR VPWR _060_/HI _060_/LO sky130_fd_sc_hd__conb_1
XFILLER_3_3 VGND VPWR VPWR VGND sky130_ef_sc_hd__decap_12
XFILLER_2_101 VGND VGND VPWR VPWR sky130_fd_sc_hd__fill_2
XFILLER_2_189 VGND VGND VPWR VPWR sky130_fd_sc_hd__fill_2
XFILLER_0_15 VGND VPWR VPWR VGND sky130_ef_sc_hd__decap_12
XFILLER_9_35 VGND VGND VPWR VPWR sky130_fd_sc_hd__fill_2
XANTENNA_mem_bottom_track_17.sky130_fd_sc_hd__dfxtp_1_0__D mux_bottom_track_9.mux_l3_in_0_/S
+ VGND VGND VPWR VPWR sky130_fd_sc_hd__diode_2
XFILLER_18_44 VGND VGND VPWR VPWR sky130_fd_sc_hd__fill_2
X_112_ chany_bottom_in[5] VGND VGND VPWR VPWR chany_top_out[6] sky130_fd_sc_hd__buf_2
X_043_ VGND VGND VPWR VPWR _043_/HI _043_/LO sky130_fd_sc_hd__conb_1
Xmux_right_track_10.mux_l2_in_1_ _063_/HI chany_bottom_in[9] mux_right_track_10.mux_l2_in_1_/S
+ VGND VGND VPWR VPWR mux_right_track_10.mux_l2_in_1_/X sky130_fd_sc_hd__mux2_1
Xmem_bottom_track_25.sky130_fd_sc_hd__dfxtp_1_0_ prog_clk_0_FTB00/X mux_bottom_track_17.mux_l3_in_0_/S
+ VGND VGND VPWR VPWR mux_bottom_track_25.mux_l1_in_1_/S sky130_fd_sc_hd__dfxtp_1
Xmem_top_track_16.sky130_fd_sc_hd__dfxtp_1_2_ prog_clk_0_FTB00/X mux_top_track_16.mux_l2_in_1_/S
+ VGND VGND VPWR VPWR mux_top_track_16.mux_l3_in_0_/S sky130_fd_sc_hd__dfxtp_1
XFILLER_19_185 VGND VGND VPWR VPWR sky130_fd_sc_hd__fill_2
XFILLER_25_133 VGND VGND VPWR VPWR sky130_fd_sc_hd__fill_2
XFILLER_25_155 VGND VGND VPWR VPWR sky130_fd_sc_hd__decap_3
XFILLER_25_166 VGND VGND VPWR VPWR sky130_fd_sc_hd__fill_2
XFILLER_31_66 VGND VGND VPWR VPWR sky130_fd_sc_hd__fill_2
XFILLER_0_221 VGND VGND VPWR VPWR sky130_fd_sc_hd__fill_2
XFILLER_16_111 VGND VGND VPWR VPWR sky130_fd_sc_hd__fill_1
XFILLER_16_166 VGND VGND VPWR VPWR sky130_fd_sc_hd__fill_2
XTAP_103 VGND VPWR sky130_fd_sc_hd__tapvpwrvgnd_1
XTAP_114 VGND VPWR sky130_fd_sc_hd__tapvpwrvgnd_1
XTAP_125 VGND VPWR sky130_fd_sc_hd__tapvpwrvgnd_1
XTAP_136 VGND VPWR sky130_fd_sc_hd__tapvpwrvgnd_1
XTAP_147 VGND VPWR sky130_fd_sc_hd__tapvpwrvgnd_1
XTAP_158 VGND VPWR sky130_fd_sc_hd__tapvpwrvgnd_1
XTAP_169 VGND VPWR sky130_fd_sc_hd__tapvpwrvgnd_1
XFILLER_22_147 VGND VGND VPWR VPWR sky130_fd_sc_hd__fill_2
XANTENNA_mux_right_track_6.mux_l1_in_1__A1 right_bottom_grid_pin_35_ VGND VGND VPWR
+ VPWR sky130_fd_sc_hd__diode_2
Xmem_bottom_track_3.sky130_fd_sc_hd__dfxtp_1_1_ prog_clk_0_FTB00/X mux_bottom_track_3.mux_l1_in_1_/S
+ VGND VGND VPWR VPWR mux_bottom_track_3.mux_l2_in_1_/S sky130_fd_sc_hd__dfxtp_1
XANTENNA_mux_top_track_2.mux_l1_in_1__A0 chany_bottom_in[4] VGND VGND VPWR VPWR sky130_fd_sc_hd__diode_2
XFILLER_9_107 VGND VGND VPWR VPWR sky130_fd_sc_hd__fill_1
XFILLER_3_15 VGND VPWR VPWR VGND sky130_ef_sc_hd__decap_12
XFILLER_8_195 VGND VGND VPWR VPWR sky130_fd_sc_hd__fill_1
XANTENNA_mem_right_track_4.sky130_fd_sc_hd__dfxtp_1_0__CLK prog_clk_0_FTB00/X VGND
+ VGND VPWR VPWR sky130_fd_sc_hd__diode_2
XANTENNA_mux_right_track_4.mux_l1_in_3__A1 chany_bottom_in[5] VGND VGND VPWR VPWR
+ sky130_fd_sc_hd__diode_2
XFILLER_12_57 VGND VGND VPWR VPWR sky130_fd_sc_hd__decap_4
XFILLER_12_79 VGND VGND VPWR VPWR sky130_fd_sc_hd__fill_1
XFILLER_5_110 VGND VGND VPWR VPWR sky130_fd_sc_hd__fill_2
XANTENNA_mux_right_track_14.mux_l1_in_0__A0 chany_top_in[19] VGND VGND VPWR VPWR sky130_fd_sc_hd__diode_2
Xprog_clk_0_FTB00 prog_clk_0_E_in VGND VGND VPWR VPWR prog_clk_0_FTB00/X sky130_fd_sc_hd__buf_8
XFILLER_2_113 VGND VGND VPWR VPWR sky130_fd_sc_hd__fill_2
XFILLER_0_27 VGND VGND VPWR VPWR sky130_fd_sc_hd__fill_1
Xmem_bottom_track_9.sky130_fd_sc_hd__dfxtp_1_2_ prog_clk_0_FTB00/X mux_bottom_track_9.mux_l2_in_1_/S
+ VGND VGND VPWR VPWR mux_bottom_track_9.mux_l3_in_0_/S sky130_fd_sc_hd__dfxtp_1
XFILLER_14_220 VGND VGND VPWR VPWR sky130_fd_sc_hd__decap_3
XANTENNA_mem_right_track_10.sky130_fd_sc_hd__dfxtp_1_2__CLK prog_clk_0_FTB00/X VGND
+ VGND VPWR VPWR sky130_fd_sc_hd__diode_2
XFILLER_29_3 VGND VPWR VPWR VGND sky130_ef_sc_hd__decap_12
X_111_ chany_bottom_in[4] VGND VGND VPWR VPWR chany_top_out[5] sky130_fd_sc_hd__buf_2
XANTENNA_mux_bottom_track_5.mux_l1_in_2__A0 bottom_left_grid_pin_1_ VGND VGND VPWR
+ VPWR sky130_fd_sc_hd__diode_2
X_042_ VGND VGND VPWR VPWR _042_/HI _042_/LO sky130_fd_sc_hd__conb_1
Xmux_right_track_10.mux_l2_in_0_ right_bottom_grid_pin_35_ mux_right_track_10.mux_l1_in_0_/X
+ mux_right_track_10.mux_l2_in_1_/S VGND VGND VPWR VPWR mux_right_track_10.mux_l2_in_0_/X
+ sky130_fd_sc_hd__mux2_1
Xmux_right_track_8.mux_l3_in_0_ mux_right_track_8.mux_l2_in_1_/X mux_right_track_8.mux_l2_in_0_/X
+ mux_right_track_8.mux_l3_in_0_/S VGND VGND VPWR VPWR mux_right_track_8.mux_l3_in_0_/X
+ sky130_fd_sc_hd__mux2_1
XFILLER_1_81 VGND VGND VPWR VPWR sky130_fd_sc_hd__decap_8
XFILLER_1_92 VGND VGND VPWR VPWR sky130_fd_sc_hd__fill_2
Xmux_top_track_0.mux_l3_in_0_ mux_top_track_0.mux_l2_in_1_/X mux_top_track_0.mux_l2_in_0_/X
+ mux_top_track_0.mux_l3_in_0_/S VGND VGND VPWR VPWR mux_top_track_0.mux_l3_in_0_/X
+ sky130_fd_sc_hd__mux2_1
XFILLER_4_208 VGND VGND VPWR VPWR sky130_fd_sc_hd__fill_2
XFILLER_28_197 VGND VGND VPWR VPWR sky130_fd_sc_hd__fill_2
XFILLER_29_55 VGND VGND VPWR VPWR sky130_fd_sc_hd__fill_1
XFILLER_6_15 VGND VPWR VPWR VGND sky130_ef_sc_hd__decap_12
Xmem_top_track_16.sky130_fd_sc_hd__dfxtp_1_1_ prog_clk_0_FTB00/X mux_top_track_16.mux_l1_in_1_/S
+ VGND VGND VPWR VPWR mux_top_track_16.mux_l2_in_1_/S sky130_fd_sc_hd__dfxtp_1
Xmem_right_track_12.sky130_fd_sc_hd__dfxtp_1_2_ prog_clk_0_FTB00/X mux_right_track_12.mux_l2_in_1_/S
+ VGND VGND VPWR VPWR mux_right_track_12.mux_l3_in_0_/S sky130_fd_sc_hd__dfxtp_1
XFILLER_0_211 VGND VGND VPWR VPWR sky130_fd_sc_hd__fill_2
XFILLER_31_115 VGND VGND VPWR VPWR sky130_fd_sc_hd__fill_2
Xmux_right_track_8.mux_l2_in_1_ _047_/HI chany_bottom_in[8] mux_right_track_8.mux_l2_in_1_/S
+ VGND VGND VPWR VPWR mux_right_track_8.mux_l2_in_1_/X sky130_fd_sc_hd__mux2_1
XTAP_104 VGND VPWR sky130_fd_sc_hd__tapvpwrvgnd_1
XTAP_115 VGND VPWR sky130_fd_sc_hd__tapvpwrvgnd_1
XTAP_126 VGND VPWR sky130_fd_sc_hd__tapvpwrvgnd_1
Xmux_top_track_0.mux_l2_in_1_ _048_/HI mux_top_track_0.mux_l1_in_2_/X mux_top_track_0.mux_l2_in_1_/S
+ VGND VGND VPWR VPWR mux_top_track_0.mux_l2_in_1_/X sky130_fd_sc_hd__mux2_1
XTAP_137 VGND VPWR sky130_fd_sc_hd__tapvpwrvgnd_1
XTAP_148 VGND VPWR sky130_fd_sc_hd__tapvpwrvgnd_1
XFILLER_11_3 VGND VPWR VPWR VGND sky130_ef_sc_hd__decap_12
XTAP_159 VGND VPWR sky130_fd_sc_hd__tapvpwrvgnd_1
XFILLER_22_104 VGND VGND VPWR VPWR sky130_fd_sc_hd__fill_2
Xmem_bottom_track_3.sky130_fd_sc_hd__dfxtp_1_0_ prog_clk_0_FTB00/X mux_bottom_track_1.mux_l3_in_0_/S
+ VGND VGND VPWR VPWR mux_bottom_track_3.mux_l1_in_1_/S sky130_fd_sc_hd__dfxtp_1
XANTENNA_mux_top_track_2.mux_l1_in_1__A1 chanx_right_in[16] VGND VGND VPWR VPWR sky130_fd_sc_hd__diode_2
XFILLER_13_104 VGND VGND VPWR VPWR sky130_fd_sc_hd__fill_2
XFILLER_13_115 VGND VGND VPWR VPWR sky130_fd_sc_hd__decap_4
XFILLER_3_27 VGND VPWR VPWR VGND sky130_ef_sc_hd__decap_12
XFILLER_8_130 VGND VGND VPWR VPWR sky130_fd_sc_hd__fill_2
XANTENNA_mem_right_track_28.sky130_fd_sc_hd__dfxtp_1_0__CLK prog_clk_0_FTB00/X VGND
+ VGND VPWR VPWR sky130_fd_sc_hd__diode_2
XFILLER_27_218 VGND VGND VPWR VPWR sky130_fd_sc_hd__decap_4
XANTENNA_mux_right_track_22.mux_l1_in_0__A0 right_bottom_grid_pin_41_ VGND VGND VPWR
+ VPWR sky130_fd_sc_hd__diode_2
XFILLER_10_129 VGND VGND VPWR VPWR sky130_fd_sc_hd__fill_2
Xmux_top_track_0.mux_l1_in_2_ chany_bottom_in[12] chany_bottom_in[2] mux_top_track_0.mux_l1_in_2_/S
+ VGND VGND VPWR VPWR mux_top_track_0.mux_l1_in_2_/X sky130_fd_sc_hd__mux2_1
XFILLER_5_155 VGND VGND VPWR VPWR sky130_fd_sc_hd__fill_2
XFILLER_5_144 VGND VGND VPWR VPWR sky130_fd_sc_hd__fill_2
XFILLER_5_100 VGND VGND VPWR VPWR sky130_fd_sc_hd__fill_2
XFILLER_5_166 VGND VGND VPWR VPWR sky130_fd_sc_hd__fill_2
XFILLER_32_221 VGND VGND VPWR VPWR sky130_fd_sc_hd__fill_2
Xmux_top_track_16.sky130_fd_sc_hd__buf_4_0_ mux_top_track_16.mux_l3_in_0_/X VGND VGND
+ VPWR VPWR _114_/A sky130_fd_sc_hd__buf_4
XANTENNA_mux_right_track_14.mux_l1_in_0__A1 chany_top_in[12] VGND VGND VPWR VPWR sky130_fd_sc_hd__diode_2
XFILLER_2_136 VGND VGND VPWR VPWR sky130_fd_sc_hd__decap_4
XFILLER_2_125 VGND VGND VPWR VPWR sky130_fd_sc_hd__fill_1
Xmem_bottom_track_9.sky130_fd_sc_hd__dfxtp_1_1_ prog_clk_0_FTB00/X mux_bottom_track_9.mux_l1_in_2_/S
+ VGND VGND VPWR VPWR mux_bottom_track_9.mux_l2_in_1_/S sky130_fd_sc_hd__dfxtp_1
XFILLER_9_15 VGND VPWR VPWR VGND sky130_ef_sc_hd__decap_12
XFILLER_20_213 VGND VGND VPWR VPWR sky130_fd_sc_hd__fill_2
X_110_ _110_/A VGND VGND VPWR VPWR chany_top_out[4] sky130_fd_sc_hd__buf_2
XANTENNA_mux_bottom_track_5.mux_l1_in_2__A1 chanx_right_in[17] VGND VGND VPWR VPWR
+ sky130_fd_sc_hd__diode_2
X_041_ VGND VGND VPWR VPWR _041_/HI _041_/LO sky130_fd_sc_hd__conb_1
XANTENNA_mem_top_track_4.sky130_fd_sc_hd__dfxtp_1_2__CLK prog_clk_0_FTB00/X VGND VGND
+ VPWR VPWR sky130_fd_sc_hd__diode_2
XFILLER_29_67 VGND VGND VPWR VPWR sky130_fd_sc_hd__fill_2
XFILLER_29_78 VGND VGND VPWR VPWR sky130_fd_sc_hd__fill_2
XFILLER_28_110 VGND VGND VPWR VPWR sky130_fd_sc_hd__fill_2
XFILLER_28_132 VGND VGND VPWR VPWR sky130_fd_sc_hd__fill_2
XFILLER_28_143 VGND VGND VPWR VPWR sky130_fd_sc_hd__decap_4
XFILLER_6_27 VGND VGND VPWR VPWR sky130_fd_sc_hd__fill_1
Xmem_top_track_16.sky130_fd_sc_hd__dfxtp_1_0_ prog_clk_0_FTB00/X mux_top_track_8.mux_l3_in_0_/S
+ VGND VGND VPWR VPWR mux_top_track_16.mux_l1_in_1_/S sky130_fd_sc_hd__dfxtp_1
XFILLER_19_110 VGND VGND VPWR VPWR sky130_fd_sc_hd__fill_2
XFILLER_25_113 VGND VGND VPWR VPWR sky130_fd_sc_hd__decap_4
Xmux_top_track_0.sky130_fd_sc_hd__buf_4_0_ mux_top_track_0.mux_l3_in_0_/X VGND VGND
+ VPWR VPWR _106_/A sky130_fd_sc_hd__buf_4
XANTENNA_mux_right_track_12.mux_l2_in_1__A1 chany_bottom_in[10] VGND VGND VPWR VPWR
+ sky130_fd_sc_hd__diode_2
Xmem_right_track_12.sky130_fd_sc_hd__dfxtp_1_1_ prog_clk_0_FTB00/X mux_right_track_12.mux_l1_in_0_/S
+ VGND VGND VPWR VPWR mux_right_track_12.mux_l2_in_1_/S sky130_fd_sc_hd__dfxtp_1
Xmux_right_track_10.mux_l1_in_0_ chany_top_in[11] chany_top_in[9] mux_right_track_10.mux_l1_in_0_/S
+ VGND VGND VPWR VPWR mux_right_track_10.mux_l1_in_0_/X sky130_fd_sc_hd__mux2_1
XFILLER_31_127 VGND VGND VPWR VPWR sky130_fd_sc_hd__fill_2
Xmux_right_track_8.mux_l2_in_0_ right_bottom_grid_pin_34_ mux_right_track_8.mux_l1_in_0_/X
+ mux_right_track_8.mux_l2_in_1_/S VGND VGND VPWR VPWR mux_right_track_8.mux_l2_in_0_/X
+ sky130_fd_sc_hd__mux2_1
XTAP_105 VGND VPWR sky130_fd_sc_hd__tapvpwrvgnd_1
XTAP_116 VGND VPWR sky130_fd_sc_hd__tapvpwrvgnd_1
Xmux_top_track_0.mux_l2_in_0_ mux_top_track_0.mux_l1_in_1_/X mux_top_track_0.mux_l1_in_0_/X
+ mux_top_track_0.mux_l2_in_1_/S VGND VGND VPWR VPWR mux_top_track_0.mux_l2_in_0_/X
+ sky130_fd_sc_hd__mux2_1
XTAP_127 VGND VPWR sky130_fd_sc_hd__tapvpwrvgnd_1
XTAP_138 VGND VPWR sky130_fd_sc_hd__tapvpwrvgnd_1
XTAP_149 VGND VPWR sky130_fd_sc_hd__tapvpwrvgnd_1
XANTENNA_mux_right_track_30.mux_l1_in_0__A0 chany_bottom_in[7] VGND VGND VPWR VPWR
+ sky130_fd_sc_hd__diode_2
Xmux_right_track_22.mux_l2_in_0_ mux_right_track_22.mux_l1_in_1_/X mux_right_track_22.mux_l1_in_0_/X
+ mux_right_track_22.mux_l2_in_0_/S VGND VGND VPWR VPWR mux_right_track_22.mux_l2_in_0_/X
+ sky130_fd_sc_hd__mux2_1
XFILLER_7_92 VGND VGND VPWR VPWR sky130_fd_sc_hd__fill_2
XFILLER_7_81 VGND VGND VPWR VPWR sky130_fd_sc_hd__fill_2
XANTENNA_mem_bottom_track_3.sky130_fd_sc_hd__dfxtp_1_1__D mux_bottom_track_3.mux_l1_in_1_/S
+ VGND VGND VPWR VPWR sky130_fd_sc_hd__diode_2
XFILLER_3_39 VGND VPWR VPWR VGND sky130_ef_sc_hd__decap_12
XFILLER_12_193 VGND VGND VPWR VPWR sky130_fd_sc_hd__decap_3
XANTENNA_mux_right_track_22.mux_l1_in_0__A1 chany_top_in[17] VGND VGND VPWR VPWR sky130_fd_sc_hd__diode_2
XFILLER_10_119 VGND VGND VPWR VPWR sky130_fd_sc_hd__fill_1
XFILLER_12_15 VGND VPWR VPWR VGND sky130_ef_sc_hd__decap_12
Xmux_top_track_0.mux_l1_in_1_ chanx_right_in[15] chanx_right_in[8] mux_top_track_0.mux_l1_in_2_/S
+ VGND VGND VPWR VPWR mux_top_track_0.mux_l1_in_1_/X sky130_fd_sc_hd__mux2_1
Xmux_right_track_22.mux_l1_in_1_ _037_/HI chany_bottom_in[17] mux_right_track_22.mux_l1_in_1_/S
+ VGND VGND VPWR VPWR mux_right_track_22.mux_l1_in_1_/X sky130_fd_sc_hd__mux2_1
XANTENNA_mux_bottom_track_17.mux_l1_in_0__A0 chany_top_in[17] VGND VGND VPWR VPWR
+ sky130_fd_sc_hd__diode_2
XFILLER_4_82 VGND VGND VPWR VPWR sky130_fd_sc_hd__fill_2
XFILLER_23_200 VGND VGND VPWR VPWR sky130_fd_sc_hd__fill_2
XFILLER_23_222 VGND VGND VPWR VPWR sky130_fd_sc_hd__fill_1
XANTENNA__091__A chany_top_in[4] VGND VGND VPWR VPWR sky130_fd_sc_hd__diode_2
Xmem_bottom_track_9.sky130_fd_sc_hd__dfxtp_1_0_ prog_clk_0_FTB00/X mux_bottom_track_5.mux_l3_in_0_/S
+ VGND VGND VPWR VPWR mux_bottom_track_9.mux_l1_in_2_/S sky130_fd_sc_hd__dfxtp_1
XFILLER_0_29 VGND VPWR VPWR VGND sky130_ef_sc_hd__decap_12
XFILLER_9_27 VGND VGND VPWR VPWR sky130_fd_sc_hd__decap_8
Xmem_bottom_track_17.sky130_fd_sc_hd__dfxtp_1_2_ prog_clk_0_FTB00/X mux_bottom_track_17.mux_l2_in_1_/S
+ VGND VGND VPWR VPWR mux_bottom_track_17.mux_l3_in_0_/S sky130_fd_sc_hd__dfxtp_1
XFILLER_1_3 VGND VPWR VPWR VGND sky130_ef_sc_hd__decap_12
X_040_ VGND VGND VPWR VPWR _040_/HI _040_/LO sky130_fd_sc_hd__conb_1
XANTENNA_mem_bottom_track_33.sky130_fd_sc_hd__dfxtp_1_0__CLK prog_clk_0_FTB00/X VGND
+ VGND VPWR VPWR sky130_fd_sc_hd__diode_2
Xmux_right_track_10.sky130_fd_sc_hd__buf_4_0_ mux_right_track_10.mux_l3_in_0_/X VGND
+ VGND VPWR VPWR _071_/A sky130_fd_sc_hd__buf_4
XANTENNA_mux_top_track_4.mux_l1_in_2__A0 chany_bottom_in[14] VGND VGND VPWR VPWR sky130_fd_sc_hd__diode_2
XFILLER_20_15 VGND VPWR VPWR VGND sky130_ef_sc_hd__decap_12
XFILLER_29_57 VGND VGND VPWR VPWR sky130_fd_sc_hd__decap_4
XFILLER_19_122 VGND VGND VPWR VPWR sky130_fd_sc_hd__fill_2
XFILLER_19_144 VGND VGND VPWR VPWR sky130_fd_sc_hd__fill_2
XFILLER_19_166 VGND VGND VPWR VPWR sky130_fd_sc_hd__fill_2
XFILLER_15_15 VGND VPWR VPWR VGND sky130_ef_sc_hd__decap_12
Xmem_right_track_12.sky130_fd_sc_hd__dfxtp_1_0_ prog_clk_0_FTB00/X mux_right_track_10.mux_l3_in_0_/S
+ VGND VGND VPWR VPWR mux_right_track_12.mux_l1_in_0_/S sky130_fd_sc_hd__dfxtp_1
XANTENNA_mem_bottom_track_25.sky130_fd_sc_hd__dfxtp_1_1__CLK prog_clk_0_FTB00/X VGND
+ VGND VPWR VPWR sky130_fd_sc_hd__diode_2
XFILLER_16_136 VGND VGND VPWR VPWR sky130_fd_sc_hd__decap_4
XANTENNA_mux_right_track_8.mux_l2_in_1__A1 chany_bottom_in[8] VGND VGND VPWR VPWR
+ sky130_fd_sc_hd__diode_2
XFILLER_24_180 VGND VGND VPWR VPWR sky130_fd_sc_hd__decap_4
XFILLER_24_191 VGND VGND VPWR VPWR sky130_fd_sc_hd__fill_1
XTAP_106 VGND VPWR sky130_fd_sc_hd__tapvpwrvgnd_1
XTAP_117 VGND VPWR sky130_fd_sc_hd__tapvpwrvgnd_1
XTAP_128 VGND VPWR sky130_fd_sc_hd__tapvpwrvgnd_1
XTAP_139 VGND VPWR sky130_fd_sc_hd__tapvpwrvgnd_1
XPHY_0 VGND VGND VPWR VPWR sky130_fd_sc_hd__decap_3
XANTENNA_mux_right_track_30.mux_l1_in_0__A1 right_bottom_grid_pin_37_ VGND VGND VPWR
+ VPWR sky130_fd_sc_hd__diode_2
XFILLER_30_194 VGND VGND VPWR VPWR sky130_fd_sc_hd__fill_2
XFILLER_30_161 VGND VGND VPWR VPWR sky130_fd_sc_hd__decap_4
XANTENNA_mem_right_track_30.sky130_fd_sc_hd__dfxtp_1_0__CLK prog_clk_0_FTB00/X VGND
+ VGND VPWR VPWR sky130_fd_sc_hd__diode_2
XANTENNA_mux_bottom_track_9.mux_l1_in_1__A0 chanx_right_in[9] VGND VGND VPWR VPWR
+ sky130_fd_sc_hd__diode_2
Xmux_bottom_track_33.sky130_fd_sc_hd__buf_4_0_ mux_bottom_track_33.mux_l2_in_0_/X
+ VGND VGND VPWR VPWR _102_/A sky130_fd_sc_hd__buf_4
XANTENNA_mux_bottom_track_25.mux_l1_in_0__A0 chany_top_in[18] VGND VGND VPWR VPWR
+ sky130_fd_sc_hd__diode_2
XFILLER_8_110 VGND VGND VPWR VPWR sky130_fd_sc_hd__fill_2