* NGSPICE file created from sb_0__2_.ext - technology: sky130A

* Black-box entry subcircuit for sky130_fd_sc_hd__tapvpwrvgnd_1 abstract view
.subckt sky130_fd_sc_hd__tapvpwrvgnd_1 VGND VPWR
.ends

* Black-box entry subcircuit for sky130_fd_sc_hd__dfxtp_1 abstract view
.subckt sky130_fd_sc_hd__dfxtp_1 CLK D VGND VNB VPB VPWR Q
.ends

* Black-box entry subcircuit for sky130_fd_sc_hd__fill_2 abstract view
.subckt sky130_fd_sc_hd__fill_2 VGND VNB VPB VPWR
.ends

* Black-box entry subcircuit for sky130_ef_sc_hd__decap_12 abstract view
.subckt sky130_ef_sc_hd__decap_12 VGND VPWR VPB VNB
.ends

* Black-box entry subcircuit for sky130_fd_sc_hd__fill_1 abstract view
.subckt sky130_fd_sc_hd__fill_1 VGND VNB VPB VPWR
.ends

* Black-box entry subcircuit for sky130_fd_sc_hd__buf_2 abstract view
.subckt sky130_fd_sc_hd__buf_2 A VGND VNB VPB VPWR X
.ends

* Black-box entry subcircuit for sky130_fd_sc_hd__buf_4 abstract view
.subckt sky130_fd_sc_hd__buf_4 A VGND VNB VPB VPWR X
.ends

* Black-box entry subcircuit for sky130_fd_sc_hd__diode_2 abstract view
.subckt sky130_fd_sc_hd__diode_2 DIODE VGND VNB VPB VPWR
.ends

* Black-box entry subcircuit for sky130_fd_sc_hd__decap_3 abstract view
.subckt sky130_fd_sc_hd__decap_3 VGND VNB VPB VPWR
.ends

* Black-box entry subcircuit for sky130_fd_sc_hd__decap_6 abstract view
.subckt sky130_fd_sc_hd__decap_6 VGND VNB VPB VPWR
.ends

* Black-box entry subcircuit for sky130_fd_sc_hd__mux2_1 abstract view
.subckt sky130_fd_sc_hd__mux2_1 A0 A1 S VGND VNB VPB VPWR X
.ends

* Black-box entry subcircuit for sky130_fd_sc_hd__decap_4 abstract view
.subckt sky130_fd_sc_hd__decap_4 VGND VNB VPB VPWR
.ends

* Black-box entry subcircuit for sky130_fd_sc_hd__decap_8 abstract view
.subckt sky130_fd_sc_hd__decap_8 VGND VNB VPB VPWR
.ends

* Black-box entry subcircuit for sky130_fd_sc_hd__conb_1 abstract view
.subckt sky130_fd_sc_hd__conb_1 VGND VNB VPB VPWR HI LO
.ends

* Black-box entry subcircuit for sky130_fd_sc_hd__buf_8 abstract view
.subckt sky130_fd_sc_hd__buf_8 A VGND VNB VPB VPWR X
.ends

.subckt sb_0__2_ SC_IN_TOP SC_OUT_BOT VGND VPWR bottom_left_grid_pin_1_ ccff_head
+ ccff_tail chanx_right_in[0] chanx_right_in[10] chanx_right_in[11] chanx_right_in[12]
+ chanx_right_in[13] chanx_right_in[14] chanx_right_in[15] chanx_right_in[16] chanx_right_in[17]
+ chanx_right_in[18] chanx_right_in[19] chanx_right_in[1] chanx_right_in[2] chanx_right_in[3]
+ chanx_right_in[4] chanx_right_in[5] chanx_right_in[6] chanx_right_in[7] chanx_right_in[8]
+ chanx_right_in[9] chanx_right_out[0] chanx_right_out[10] chanx_right_out[11] chanx_right_out[12]
+ chanx_right_out[13] chanx_right_out[14] chanx_right_out[15] chanx_right_out[16]
+ chanx_right_out[17] chanx_right_out[18] chanx_right_out[19] chanx_right_out[1] chanx_right_out[2]
+ chanx_right_out[3] chanx_right_out[4] chanx_right_out[5] chanx_right_out[6] chanx_right_out[7]
+ chanx_right_out[8] chanx_right_out[9] chany_bottom_in[0] chany_bottom_in[10] chany_bottom_in[11]
+ chany_bottom_in[12] chany_bottom_in[13] chany_bottom_in[14] chany_bottom_in[15]
+ chany_bottom_in[16] chany_bottom_in[17] chany_bottom_in[18] chany_bottom_in[19]
+ chany_bottom_in[1] chany_bottom_in[2] chany_bottom_in[3] chany_bottom_in[4] chany_bottom_in[5]
+ chany_bottom_in[6] chany_bottom_in[7] chany_bottom_in[8] chany_bottom_in[9] chany_bottom_out[0]
+ chany_bottom_out[10] chany_bottom_out[11] chany_bottom_out[12] chany_bottom_out[13]
+ chany_bottom_out[14] chany_bottom_out[15] chany_bottom_out[16] chany_bottom_out[17]
+ chany_bottom_out[18] chany_bottom_out[19] chany_bottom_out[1] chany_bottom_out[2]
+ chany_bottom_out[3] chany_bottom_out[4] chany_bottom_out[5] chany_bottom_out[6]
+ chany_bottom_out[7] chany_bottom_out[8] chany_bottom_out[9] prog_clk_0_E_in right_bottom_grid_pin_34_
+ right_bottom_grid_pin_35_ right_bottom_grid_pin_36_ right_bottom_grid_pin_37_ right_bottom_grid_pin_38_
+ right_bottom_grid_pin_39_ right_bottom_grid_pin_40_ right_bottom_grid_pin_41_ right_top_grid_pin_1_
XTAP_188 VGND VPWR sky130_fd_sc_hd__tapvpwrvgnd_1
XTAP_177 VGND VPWR sky130_fd_sc_hd__tapvpwrvgnd_1
Xmem_right_track_2.sky130_fd_sc_hd__dfxtp_1_0_ prog_clk_0_FTB00/X mux_right_track_0.mux_l3_in_0_/S
+ VGND VGND VPWR VPWR mux_right_track_2.mux_l1_in_1_/S sky130_fd_sc_hd__dfxtp_1
Xmem_right_track_20.sky130_fd_sc_hd__dfxtp_1_1_ prog_clk_0_FTB00/X mux_right_track_20.mux_l1_in_0_/S
+ VGND VGND VPWR VPWR mux_right_track_20.mux_l2_in_0_/S sky130_fd_sc_hd__dfxtp_1
XFILLER_22_100 VGND VGND VPWR VPWR sky130_fd_sc_hd__fill_2
XFILLER_26_85 VGND VPWR VPWR VGND sky130_ef_sc_hd__decap_12
XFILLER_26_41 VGND VPWR VPWR VGND sky130_ef_sc_hd__decap_12
XFILLER_13_166 VGND VGND VPWR VPWR sky130_fd_sc_hd__fill_2
XFILLER_13_111 VGND VGND VPWR VPWR sky130_fd_sc_hd__fill_1
X_83_ chanx_right_in[4] VGND VGND VPWR VPWR chany_bottom_out[14] sky130_fd_sc_hd__buf_2
XFILLER_12_65 VGND VPWR VPWR VGND sky130_ef_sc_hd__decap_12
XFILLER_10_158 VGND VGND VPWR VPWR sky130_fd_sc_hd__fill_2
X_66_ _66_/A VGND VGND VPWR VPWR chanx_right_out[17] sky130_fd_sc_hd__buf_2
XFILLER_5_162 VGND VGND VPWR VPWR sky130_fd_sc_hd__fill_2
Xmux_right_track_36.sky130_fd_sc_hd__buf_4_0_ mux_right_track_36.mux_l2_in_0_/X VGND
+ VGND VPWR VPWR _67_/A sky130_fd_sc_hd__buf_4
XFILLER_23_97 VGND VGND VPWR VPWR sky130_fd_sc_hd__fill_1
XANTENNA_mux_right_track_4.mux_l1_in_0__A1 right_top_grid_pin_1_ VGND VGND VPWR VPWR
+ sky130_fd_sc_hd__diode_2
Xmem_right_track_8.sky130_fd_sc_hd__dfxtp_1_1_ prog_clk_0_FTB00/X mux_right_track_8.mux_l1_in_1_/S
+ VGND VGND VPWR VPWR mux_right_track_8.mux_l2_in_0_/S sky130_fd_sc_hd__dfxtp_1
XFILLER_9_55 VGND VGND VPWR VPWR sky130_fd_sc_hd__fill_1
XFILLER_0_57 VGND VPWR VPWR VGND sky130_ef_sc_hd__decap_12
XFILLER_2_121 VGND VPWR VPWR VGND sky130_ef_sc_hd__decap_12
XFILLER_2_165 VGND VGND VPWR VPWR sky130_fd_sc_hd__decap_3
X_49_ _49_/A VGND VGND VPWR VPWR chanx_right_out[0] sky130_fd_sc_hd__buf_2
XFILLER_18_97 VGND VPWR VPWR VGND sky130_ef_sc_hd__decap_12
XFILLER_18_53 VGND VPWR VPWR VGND sky130_ef_sc_hd__decap_12
XFILLER_20_65 VGND VPWR VPWR VGND sky130_ef_sc_hd__decap_12
XFILLER_26_109 VGND VGND VPWR VPWR sky130_fd_sc_hd__decap_6
XFILLER_13_3 VGND VPWR VPWR VGND sky130_ef_sc_hd__decap_12
XANTENNA_mux_right_track_0.mux_l1_in_1__S mux_right_track_0.mux_l1_in_2_/S VGND VGND
+ VPWR VPWR sky130_fd_sc_hd__diode_2
XFILLER_25_197 VGND VGND VPWR VPWR sky130_fd_sc_hd__decap_6
XFILLER_25_142 VGND VGND VPWR VPWR sky130_fd_sc_hd__fill_2
XANTENNA_mux_right_track_2.mux_l2_in_1__A1 chany_bottom_in[17] VGND VGND VPWR VPWR
+ sky130_fd_sc_hd__diode_2
XFILLER_16_186 VGND VGND VPWR VPWR sky130_fd_sc_hd__fill_2
XFILLER_16_164 VGND VGND VPWR VPWR sky130_fd_sc_hd__fill_2
Xmux_right_track_38.mux_l1_in_0_ chany_bottom_in[19] right_bottom_grid_pin_40_ mux_right_track_38.mux_l1_in_0_/S
+ VGND VGND VPWR VPWR mux_right_track_38.mux_l1_in_0_/X sky130_fd_sc_hd__mux2_1
XTAP_189 VGND VPWR sky130_fd_sc_hd__tapvpwrvgnd_1
XTAP_178 VGND VPWR sky130_fd_sc_hd__tapvpwrvgnd_1
XTAP_167 VGND VPWR sky130_fd_sc_hd__tapvpwrvgnd_1
XTAP_156 VGND VPWR sky130_fd_sc_hd__tapvpwrvgnd_1
Xmem_right_track_20.sky130_fd_sc_hd__dfxtp_1_0_ prog_clk_0_FTB00/X mux_right_track_18.mux_l2_in_0_/S
+ VGND VGND VPWR VPWR mux_right_track_20.mux_l1_in_0_/S sky130_fd_sc_hd__dfxtp_1
XTAP_145 VGND VPWR sky130_fd_sc_hd__tapvpwrvgnd_1
XTAP_134 VGND VPWR sky130_fd_sc_hd__tapvpwrvgnd_1
XTAP_123 VGND VPWR sky130_fd_sc_hd__tapvpwrvgnd_1
XTAP_112 VGND VPWR sky130_fd_sc_hd__tapvpwrvgnd_1
XTAP_101 VGND VPWR sky130_fd_sc_hd__tapvpwrvgnd_1
XFILLER_26_97 VGND VPWR VPWR VGND sky130_ef_sc_hd__decap_12
XFILLER_26_53 VGND VPWR VPWR VGND sky130_ef_sc_hd__decap_12
XFILLER_13_189 VGND VGND VPWR VPWR sky130_fd_sc_hd__decap_4
XFILLER_13_134 VGND VGND VPWR VPWR sky130_fd_sc_hd__fill_2
XFILLER_9_149 VGND VGND VPWR VPWR sky130_fd_sc_hd__decap_4
XFILLER_9_105 VGND VGND VPWR VPWR sky130_fd_sc_hd__decap_6
XFILLER_3_57 VGND VPWR VPWR VGND sky130_ef_sc_hd__decap_12
X_82_ chanx_right_in[5] VGND VGND VPWR VPWR chany_bottom_out[13] sky130_fd_sc_hd__buf_2
XFILLER_12_77 VGND VGND VPWR VPWR sky130_fd_sc_hd__decap_6
X_65_ _65_/A VGND VGND VPWR VPWR chanx_right_out[16] sky130_fd_sc_hd__buf_2
XFILLER_15_218 VGND VGND VPWR VPWR sky130_fd_sc_hd__decap_4
Xmem_right_track_26.sky130_fd_sc_hd__dfxtp_1_1_ prog_clk_0_FTB00/X mux_right_track_26.mux_l1_in_0_/S
+ VGND VGND VPWR VPWR mux_right_track_26.mux_l2_in_0_/S sky130_fd_sc_hd__dfxtp_1
Xmem_right_track_8.sky130_fd_sc_hd__dfxtp_1_0_ prog_clk_0_FTB00/X mux_right_track_6.mux_l3_in_0_/S
+ VGND VGND VPWR VPWR mux_right_track_8.mux_l1_in_1_/S sky130_fd_sc_hd__dfxtp_1
XFILLER_0_69 VGND VPWR VPWR VGND sky130_ef_sc_hd__decap_12
XFILLER_2_133 VGND VGND VPWR VPWR sky130_fd_sc_hd__decap_6
XFILLER_2_188 VGND VGND VPWR VPWR sky130_fd_sc_hd__fill_2
X_48_ SC_IN_TOP VGND VGND VPWR VPWR SC_OUT_BOT sky130_fd_sc_hd__buf_2
XFILLER_18_65 VGND VPWR VPWR VGND sky130_ef_sc_hd__decap_12
Xmem_bottom_track_25.sky130_fd_sc_hd__dfxtp_1_1_ prog_clk_0_FTB00/X mux_bottom_track_25.mux_l1_in_0_/S
+ VGND VGND VPWR VPWR ccff_tail sky130_fd_sc_hd__dfxtp_1
XFILLER_20_77 VGND VGND VPWR VPWR sky130_fd_sc_hd__decap_6
XFILLER_4_217 VGND VGND VPWR VPWR sky130_fd_sc_hd__fill_2
XFILLER_28_195 VGND VGND VPWR VPWR sky130_fd_sc_hd__fill_1
XFILLER_15_55 VGND VGND VPWR VPWR sky130_fd_sc_hd__fill_1
XFILLER_31_102 VGND VGND VPWR VPWR sky130_fd_sc_hd__fill_2
XFILLER_16_154 VGND VGND VPWR VPWR sky130_fd_sc_hd__fill_1
XFILLER_16_132 VGND VGND VPWR VPWR sky130_fd_sc_hd__decap_3
XFILLER_16_121 VGND VGND VPWR VPWR sky130_fd_sc_hd__fill_2
XFILLER_16_110 VGND VGND VPWR VPWR sky130_fd_sc_hd__fill_2
XTAP_179 VGND VPWR sky130_fd_sc_hd__tapvpwrvgnd_1
XTAP_168 VGND VPWR sky130_fd_sc_hd__tapvpwrvgnd_1
XTAP_157 VGND VPWR sky130_fd_sc_hd__tapvpwrvgnd_1
XFILLER_22_157 VGND VGND VPWR VPWR sky130_fd_sc_hd__decap_8
XTAP_146 VGND VPWR sky130_fd_sc_hd__tapvpwrvgnd_1
XTAP_135 VGND VPWR sky130_fd_sc_hd__tapvpwrvgnd_1
XTAP_124 VGND VPWR sky130_fd_sc_hd__tapvpwrvgnd_1
XTAP_113 VGND VPWR sky130_fd_sc_hd__tapvpwrvgnd_1
XTAP_102 VGND VPWR sky130_fd_sc_hd__tapvpwrvgnd_1
XANTENNA_mux_right_track_6.mux_l1_in_1__A0 right_bottom_grid_pin_40_ VGND VGND VPWR
+ VPWR sky130_fd_sc_hd__diode_2
XFILLER_26_65 VGND VPWR VPWR VGND sky130_ef_sc_hd__decap_12
XFILLER_13_113 VGND VGND VPWR VPWR sky130_fd_sc_hd__fill_2
XFILLER_8_194 VGND VGND VPWR VPWR sky130_fd_sc_hd__fill_2
X_81_ _81_/A VGND VGND VPWR VPWR chany_bottom_out[12] sky130_fd_sc_hd__buf_2
XFILLER_3_69 VGND VPWR VPWR VGND sky130_ef_sc_hd__decap_12
XFILLER_10_138 VGND VGND VPWR VPWR sky130_fd_sc_hd__fill_2
XFILLER_6_109 VGND VPWR VPWR VGND sky130_ef_sc_hd__decap_12
X_64_ _64_/A VGND VGND VPWR VPWR chanx_right_out[15] sky130_fd_sc_hd__buf_2
XFILLER_5_175 VGND VGND VPWR VPWR sky130_fd_sc_hd__decap_3
Xmem_right_track_26.sky130_fd_sc_hd__dfxtp_1_0_ prog_clk_0_FTB00/X mux_right_track_24.mux_l2_in_0_/S
+ VGND VGND VPWR VPWR mux_right_track_26.mux_l1_in_0_/S sky130_fd_sc_hd__dfxtp_1
XFILLER_23_55 VGND VGND VPWR VPWR sky130_fd_sc_hd__fill_1
XFILLER_0_15 VGND VPWR VPWR VGND sky130_ef_sc_hd__decap_12
XFILLER_3_3 VGND VPWR VPWR VGND sky130_ef_sc_hd__decap_12
XFILLER_9_57 VGND VPWR VPWR VGND sky130_ef_sc_hd__decap_12
X_47_ VGND VGND VPWR VPWR _47_/HI _47_/LO sky130_fd_sc_hd__conb_1
XFILLER_18_77 VGND VGND VPWR VPWR sky130_fd_sc_hd__decap_6
XFILLER_11_222 VGND VGND VPWR VPWR sky130_fd_sc_hd__fill_1
XFILLER_11_211 VGND VGND VPWR VPWR sky130_fd_sc_hd__decap_3
XFILLER_11_200 VGND VGND VPWR VPWR sky130_fd_sc_hd__fill_2
Xmem_bottom_track_25.sky130_fd_sc_hd__dfxtp_1_0_ prog_clk_0_FTB00/X mux_bottom_track_9.mux_l2_in_0_/S
+ VGND VGND VPWR VPWR mux_bottom_track_25.mux_l1_in_0_/S sky130_fd_sc_hd__dfxtp_1
XFILLER_4_207 VGND VGND VPWR VPWR sky130_fd_sc_hd__fill_2
XFILLER_28_141 VGND VPWR VPWR VGND sky130_ef_sc_hd__decap_12
XFILLER_31_55 VGND VGND VPWR VPWR sky130_fd_sc_hd__fill_1
XTAP_169 VGND VPWR sky130_fd_sc_hd__tapvpwrvgnd_1
XTAP_158 VGND VPWR sky130_fd_sc_hd__tapvpwrvgnd_1
XTAP_147 VGND VPWR sky130_fd_sc_hd__tapvpwrvgnd_1
XTAP_136 VGND VPWR sky130_fd_sc_hd__tapvpwrvgnd_1
XTAP_125 VGND VPWR sky130_fd_sc_hd__tapvpwrvgnd_1
XTAP_114 VGND VPWR sky130_fd_sc_hd__tapvpwrvgnd_1
XTAP_103 VGND VPWR sky130_fd_sc_hd__tapvpwrvgnd_1
XFILLER_26_77 VGND VGND VPWR VPWR sky130_fd_sc_hd__decap_6
XFILLER_13_158 VGND VGND VPWR VPWR sky130_fd_sc_hd__decap_8
XANTENNA_mux_right_track_6.mux_l1_in_1__A1 right_bottom_grid_pin_38_ VGND VGND VPWR
+ VPWR sky130_fd_sc_hd__diode_2
XFILLER_12_191 VGND VGND VPWR VPWR sky130_fd_sc_hd__decap_4
XFILLER_12_180 VGND VGND VPWR VPWR sky130_fd_sc_hd__fill_2
X_80_ chanx_right_in[7] VGND VGND VPWR VPWR chany_bottom_out[11] sky130_fd_sc_hd__buf_2
XFILLER_3_15 VGND VPWR VPWR VGND sky130_ef_sc_hd__decap_12
XANTENNA_mux_right_track_6.mux_l1_in_0__S mux_right_track_6.mux_l1_in_1_/S VGND VGND
+ VPWR VPWR sky130_fd_sc_hd__diode_2
XFILLER_5_154 VGND VGND VPWR VPWR sky130_fd_sc_hd__fill_2
XFILLER_5_187 VGND VGND VPWR VPWR sky130_fd_sc_hd__decap_4
XFILLER_5_198 VGND VGND VPWR VPWR sky130_fd_sc_hd__fill_2
X_63_ _63_/A VGND VGND VPWR VPWR chanx_right_out[14] sky130_fd_sc_hd__buf_2
Xprog_clk_0_FTB00 prog_clk_0_E_in VGND VGND VPWR VPWR prog_clk_0_FTB00/X sky130_fd_sc_hd__buf_8
XANTENNA_mux_right_track_14.mux_l1_in_0__A0 chany_bottom_in[11] VGND VGND VPWR VPWR
+ sky130_fd_sc_hd__diode_2
XFILLER_0_27 VGND VGND VPWR VPWR sky130_fd_sc_hd__fill_1
XFILLER_29_3 VGND VPWR VPWR VGND sky130_ef_sc_hd__decap_12
X_46_ VGND VGND VPWR VPWR _46_/HI _46_/LO sky130_fd_sc_hd__conb_1
XFILLER_9_69 VGND VPWR VPWR VGND sky130_ef_sc_hd__decap_12
Xmux_right_track_10.mux_l2_in_0_ _42_/HI mux_right_track_10.mux_l1_in_0_/X mux_right_track_10.mux_l2_in_0_/S
+ VGND VGND VPWR VPWR mux_right_track_10.mux_l2_in_0_/X sky130_fd_sc_hd__mux2_1
X_29_ VGND VGND VPWR VPWR _29_/HI _29_/LO sky130_fd_sc_hd__conb_1
XFILLER_1_81 VGND VPWR VPWR VGND sky130_ef_sc_hd__decap_12
XFILLER_29_55 VGND VGND VPWR VPWR sky130_fd_sc_hd__fill_1
XFILLER_28_197 VGND VGND VPWR VPWR sky130_fd_sc_hd__decap_6
XFILLER_28_153 VGND VPWR VPWR VGND sky130_ef_sc_hd__decap_12
XFILLER_6_15 VGND VPWR VPWR VGND sky130_ef_sc_hd__decap_12
XFILLER_19_164 VGND VGND VPWR VPWR sky130_fd_sc_hd__decap_4
XFILLER_15_57 VGND VPWR VPWR VGND sky130_ef_sc_hd__decap_12
XFILLER_0_222 VGND VGND VPWR VPWR sky130_fd_sc_hd__fill_1
XTAP_159 VGND VPWR sky130_fd_sc_hd__tapvpwrvgnd_1
XTAP_148 VGND VPWR sky130_fd_sc_hd__tapvpwrvgnd_1
XTAP_137 VGND VPWR sky130_fd_sc_hd__tapvpwrvgnd_1
XTAP_126 VGND VPWR sky130_fd_sc_hd__tapvpwrvgnd_1
XTAP_115 VGND VPWR sky130_fd_sc_hd__tapvpwrvgnd_1
XFILLER_11_3 VGND VPWR VPWR VGND sky130_ef_sc_hd__decap_12
XTAP_104 VGND VPWR sky130_fd_sc_hd__tapvpwrvgnd_1
XFILLER_3_27 VGND VPWR VPWR VGND sky130_ef_sc_hd__decap_12
XANTENNA_mux_right_track_22.mux_l1_in_0__A0 chany_bottom_in[7] VGND VGND VPWR VPWR
+ sky130_fd_sc_hd__diode_2
XFILLER_8_141 VGND VGND VPWR VPWR sky130_fd_sc_hd__decap_4
XFILLER_8_152 VGND VGND VPWR VPWR sky130_fd_sc_hd__fill_2
XFILLER_18_207 VGND VGND VPWR VPWR sky130_fd_sc_hd__fill_2
XFILLER_5_111 VGND VGND VPWR VPWR sky130_fd_sc_hd__fill_1
XFILLER_5_166 VGND VGND VPWR VPWR sky130_fd_sc_hd__fill_2
X_62_ _62_/A VGND VGND VPWR VPWR chanx_right_out[13] sky130_fd_sc_hd__buf_2
Xmem_bottom_track_9.sky130_fd_sc_hd__dfxtp_1_1_ prog_clk_0_FTB00/X mux_bottom_track_9.mux_l1_in_0_/S
+ VGND VGND VPWR VPWR mux_bottom_track_9.mux_l2_in_0_/S sky130_fd_sc_hd__dfxtp_1
XFILLER_23_57 VGND VPWR VPWR VGND sky130_ef_sc_hd__decap_12
XANTENNA_mux_right_track_14.mux_l1_in_0__A1 right_bottom_grid_pin_36_ VGND VGND VPWR
+ VPWR sky130_fd_sc_hd__diode_2
XFILLER_9_15 VGND VPWR VPWR VGND sky130_ef_sc_hd__decap_12
XFILLER_20_213 VGND VGND VPWR VPWR sky130_fd_sc_hd__fill_2
X_45_ VGND VGND VPWR VPWR _45_/HI _45_/LO sky130_fd_sc_hd__conb_1
X_28_ VGND VGND VPWR VPWR _28_/HI _28_/LO sky130_fd_sc_hd__conb_1
XFILLER_1_93 VGND VPWR VPWR VGND sky130_ef_sc_hd__decap_12
XFILLER_28_187 VGND VGND VPWR VPWR sky130_fd_sc_hd__decap_8
XFILLER_28_165 VGND VGND VPWR VPWR sky130_fd_sc_hd__fill_1
XFILLER_28_121 VGND VPWR VPWR VGND sky130_ef_sc_hd__decap_12
XFILLER_19_110 VGND VGND VPWR VPWR sky130_fd_sc_hd__fill_2
XFILLER_10_80 VGND VGND VPWR VPWR sky130_fd_sc_hd__decap_4
XFILLER_6_27 VGND VGND VPWR VPWR sky130_fd_sc_hd__fill_1
XFILLER_31_57 VGND VPWR VPWR VGND sky130_ef_sc_hd__decap_12
XFILLER_25_113 VGND VPWR VPWR VGND sky130_ef_sc_hd__decap_12
Xmem_right_track_12.sky130_fd_sc_hd__dfxtp_1_1_ prog_clk_0_FTB00/X mux_right_track_12.mux_l1_in_0_/S
+ VGND VGND VPWR VPWR mux_right_track_12.mux_l2_in_0_/S sky130_fd_sc_hd__dfxtp_1
XFILLER_15_69 VGND VPWR VPWR VGND sky130_ef_sc_hd__decap_12
XFILLER_0_212 VGND VGND VPWR VPWR sky130_fd_sc_hd__fill_2
XTAP_149 VGND VPWR sky130_fd_sc_hd__tapvpwrvgnd_1
XTAP_138 VGND VPWR sky130_fd_sc_hd__tapvpwrvgnd_1
XTAP_127 VGND VPWR sky130_fd_sc_hd__tapvpwrvgnd_1
XTAP_116 VGND VPWR sky130_fd_sc_hd__tapvpwrvgnd_1
Xmux_right_track_8.mux_l2_in_0_ mux_right_track_8.mux_l1_in_1_/X mux_right_track_8.mux_l1_in_0_/X
+ mux_right_track_8.mux_l2_in_0_/S VGND VGND VPWR VPWR mux_right_track_8.mux_l2_in_0_/X
+ sky130_fd_sc_hd__mux2_1
XTAP_105 VGND VPWR sky130_fd_sc_hd__tapvpwrvgnd_1
Xmux_right_track_10.mux_l1_in_0_ chany_bottom_in[13] right_bottom_grid_pin_34_ mux_right_track_10.mux_l1_in_0_/S
+ VGND VGND VPWR VPWR mux_right_track_10.mux_l1_in_0_/X sky130_fd_sc_hd__mux2_1
XFILLER_30_193 VGND VGND VPWR VPWR sky130_fd_sc_hd__decap_3
XFILLER_22_138 VGND VGND VPWR VPWR sky130_fd_sc_hd__fill_2
XFILLER_22_105 VGND VGND VPWR VPWR sky130_fd_sc_hd__fill_2
Xmux_right_track_22.mux_l2_in_0_ _25_/HI mux_right_track_22.mux_l1_in_0_/X mux_right_track_22.mux_l2_in_0_/S
+ VGND VGND VPWR VPWR mux_right_track_22.mux_l2_in_0_/X sky130_fd_sc_hd__mux2_1
XANTENNA_mux_right_track_30.mux_l1_in_0__A0 chany_bottom_in[3] VGND VGND VPWR VPWR
+ sky130_fd_sc_hd__diode_2
XFILLER_7_81 VGND VPWR VPWR VGND sky130_ef_sc_hd__decap_12
XFILLER_13_138 VGND VGND VPWR VPWR sky130_fd_sc_hd__decap_3
XFILLER_13_105 VGND VGND VPWR VPWR sky130_fd_sc_hd__decap_6
XFILLER_3_39 VGND VPWR VPWR VGND sky130_ef_sc_hd__decap_12
XFILLER_18_219 VGND VGND VPWR VPWR sky130_fd_sc_hd__decap_4
XANTENNA_mux_right_track_22.mux_l1_in_0__A1 right_bottom_grid_pin_40_ VGND VGND VPWR
+ VPWR sky130_fd_sc_hd__diode_2
XFILLER_12_15 VGND VPWR VPWR VGND sky130_ef_sc_hd__decap_12
Xmux_right_track_8.mux_l1_in_1_ _36_/HI chany_bottom_in[14] mux_right_track_8.mux_l1_in_1_/S
+ VGND VGND VPWR VPWR mux_right_track_8.mux_l1_in_1_/X sky130_fd_sc_hd__mux2_1
X_61_ _61_/A VGND VGND VPWR VPWR chanx_right_out[12] sky130_fd_sc_hd__buf_2
XFILLER_23_69 VGND VPWR VPWR VGND sky130_ef_sc_hd__decap_12
Xmem_bottom_track_9.sky130_fd_sc_hd__dfxtp_1_0_ prog_clk_0_FTB00/X mux_bottom_track_5.mux_l2_in_0_/S
+ VGND VGND VPWR VPWR mux_bottom_track_9.mux_l1_in_0_/S sky130_fd_sc_hd__dfxtp_1
XFILLER_14_222 VGND VGND VPWR VPWR sky130_fd_sc_hd__fill_1
XFILLER_9_27 VGND VPWR VPWR VGND sky130_ef_sc_hd__decap_12
XFILLER_0_29 VGND VPWR VPWR VGND sky130_ef_sc_hd__decap_12
X_44_ VGND VGND VPWR VPWR _44_/HI _44_/LO sky130_fd_sc_hd__conb_1
XFILLER_1_181 VGND VGND VPWR VPWR sky130_fd_sc_hd__fill_2
XFILLER_1_3 VGND VPWR VPWR VGND sky130_ef_sc_hd__decap_12
X_27_ VGND VGND VPWR VPWR _27_/HI _27_/LO sky130_fd_sc_hd__conb_1
Xmux_right_track_10.sky130_fd_sc_hd__buf_4_0_ mux_right_track_10.mux_l2_in_0_/X VGND
+ VGND VPWR VPWR _54_/A sky130_fd_sc_hd__buf_4
XFILLER_29_57 VGND VPWR VPWR VGND sky130_ef_sc_hd__decap_12
XFILLER_28_133 VGND VGND VPWR VPWR sky130_fd_sc_hd__decap_6
XFILLER_20_15 VGND VPWR VPWR VGND sky130_ef_sc_hd__decap_12
Xmem_right_track_12.sky130_fd_sc_hd__dfxtp_1_0_ prog_clk_0_FTB00/X mux_right_track_10.mux_l2_in_0_/S
+ VGND VGND VPWR VPWR mux_right_track_12.mux_l1_in_0_/S sky130_fd_sc_hd__dfxtp_1
XFILLER_25_125 VGND VGND VPWR VPWR sky130_fd_sc_hd__fill_1
XFILLER_15_15 VGND VPWR VPWR VGND sky130_ef_sc_hd__decap_12
XFILLER_31_69 VGND VPWR VPWR VGND sky130_ef_sc_hd__decap_12
XFILLER_24_180 VGND VPWR VPWR VGND sky130_ef_sc_hd__decap_12
XFILLER_16_169 VGND VGND VPWR VPWR sky130_fd_sc_hd__decap_3
XTAP_139 VGND VPWR sky130_fd_sc_hd__tapvpwrvgnd_1
XTAP_128 VGND VPWR sky130_fd_sc_hd__tapvpwrvgnd_1
XTAP_117 VGND VPWR sky130_fd_sc_hd__tapvpwrvgnd_1
XTAP_106 VGND VPWR sky130_fd_sc_hd__tapvpwrvgnd_1
XANTENNA_mux_right_track_30.mux_l1_in_0__A1 right_bottom_grid_pin_36_ VGND VGND VPWR
+ VPWR sky130_fd_sc_hd__diode_2
XPHY_0 VGND VGND VPWR VPWR sky130_fd_sc_hd__decap_3
XFILLER_7_93 VGND VPWR VPWR VGND sky130_ef_sc_hd__decap_12
XFILLER_13_128 VGND VGND VPWR VPWR sky130_fd_sc_hd__decap_4
XFILLER_13_117 VGND VGND VPWR VPWR sky130_fd_sc_hd__fill_2
XANTENNA_mux_bottom_track_25.mux_l1_in_0__A0 bottom_left_grid_pin_1_ VGND VGND VPWR
+ VPWR sky130_fd_sc_hd__diode_2
XFILLER_8_121 VGND VPWR VPWR VGND sky130_ef_sc_hd__decap_12
XFILLER_26_220 VGND VGND VPWR VPWR sky130_fd_sc_hd__decap_3
XFILLER_12_27 VGND VGND VPWR VPWR sky130_fd_sc_hd__fill_1
Xmux_right_track_8.mux_l1_in_0_ right_bottom_grid_pin_41_ right_top_grid_pin_1_ mux_right_track_8.mux_l1_in_1_/S
+ VGND VGND VPWR VPWR mux_right_track_8.mux_l1_in_0_/X sky130_fd_sc_hd__mux2_1
XFILLER_10_109 VGND VPWR VPWR VGND sky130_ef_sc_hd__decap_12
Xmem_right_track_18.sky130_fd_sc_hd__dfxtp_1_1_ prog_clk_0_FTB00/X mux_right_track_18.mux_l1_in_0_/S
+ VGND VGND VPWR VPWR mux_right_track_18.mux_l2_in_0_/S sky130_fd_sc_hd__dfxtp_1
Xmux_right_track_22.mux_l1_in_0_ chany_bottom_in[7] right_bottom_grid_pin_40_ mux_right_track_22.mux_l1_in_0_/S
+ VGND VGND VPWR VPWR mux_right_track_22.mux_l1_in_0_/X sky130_fd_sc_hd__mux2_1
X_60_ _60_/A VGND VGND VPWR VPWR chanx_right_out[11] sky130_fd_sc_hd__buf_2
XFILLER_5_113 VGND VPWR VPWR VGND sky130_ef_sc_hd__decap_12
Xmux_right_track_34.mux_l2_in_0_ _31_/HI mux_right_track_34.mux_l1_in_0_/X mux_right_track_34.mux_l2_in_0_/S
+ VGND VGND VPWR VPWR mux_right_track_34.mux_l2_in_0_/X sky130_fd_sc_hd__mux2_1
XFILLER_23_15 VGND VPWR VPWR VGND sky130_ef_sc_hd__decap_12
XFILLER_4_83 VGND VGND VPWR VPWR sky130_fd_sc_hd__fill_1
XFILLER_4_190 VGND VGND VPWR VPWR sky130_fd_sc_hd__fill_2
XFILLER_14_212 VGND VGND VPWR VPWR sky130_fd_sc_hd__fill_2
XFILLER_13_81 VGND VPWR VPWR VGND sky130_ef_sc_hd__decap_12
Xmux_right_track_8.sky130_fd_sc_hd__buf_4_0_ mux_right_track_8.mux_l2_in_0_/X VGND
+ VGND VPWR VPWR _53_/A sky130_fd_sc_hd__buf_4
XFILLER_9_39 VGND VPWR VPWR VGND sky130_ef_sc_hd__decap_12
X_43_ VGND VGND VPWR VPWR _43_/HI _43_/LO sky130_fd_sc_hd__conb_1
XFILLER_1_193 VGND VGND VPWR VPWR sky130_fd_sc_hd__fill_2
XFILLER_18_15 VGND VPWR VPWR VGND sky130_ef_sc_hd__decap_12
XANTENNA_mem_right_track_0.sky130_fd_sc_hd__dfxtp_1_1__D mux_right_track_0.mux_l1_in_2_/S
+ VGND VGND VPWR VPWR sky130_fd_sc_hd__diode_2
XFILLER_27_3 VGND VPWR VPWR VGND sky130_ef_sc_hd__decap_12
XFILLER_29_69 VGND VPWR VPWR VGND sky130_ef_sc_hd__decap_12
XFILLER_20_27 VGND VGND VPWR VPWR sky130_fd_sc_hd__fill_1
X_26_ VGND VGND VPWR VPWR _26_/HI _26_/LO sky130_fd_sc_hd__conb_1
XFILLER_1_51 VGND VGND VPWR VPWR sky130_fd_sc_hd__decap_4
XFILLER_19_145 VGND VGND VPWR VPWR sky130_fd_sc_hd__decap_3
XFILLER_19_123 VGND VGND VPWR VPWR sky130_fd_sc_hd__fill_2
XFILLER_3_200 VGND VGND VPWR VPWR sky130_fd_sc_hd__fill_2
XFILLER_3_222 VGND VGND VPWR VPWR sky130_fd_sc_hd__fill_1
XFILLER_6_29 VGND VPWR VPWR VGND sky130_ef_sc_hd__decap_12
Xmux_right_track_32.sky130_fd_sc_hd__buf_4_0_ mux_right_track_32.mux_l2_in_0_/X VGND
+ VGND VPWR VPWR _65_/A sky130_fd_sc_hd__buf_4
XFILLER_25_104 VGND VGND VPWR VPWR sky130_fd_sc_hd__fill_2
XFILLER_15_27 VGND VPWR VPWR VGND sky130_ef_sc_hd__decap_12
XFILLER_31_15 VGND VPWR VPWR VGND sky130_ef_sc_hd__decap_12
XFILLER_24_192 VGND VGND VPWR VPWR sky130_fd_sc_hd__decap_4
XFILLER_21_81 VGND VPWR VPWR VGND sky130_ef_sc_hd__decap_12
XTAP_129 VGND VPWR sky130_fd_sc_hd__tapvpwrvgnd_1
XTAP_118 VGND VPWR sky130_fd_sc_hd__tapvpwrvgnd_1
XTAP_107 VGND VPWR sky130_fd_sc_hd__tapvpwrvgnd_1
XPHY_1 VGND VGND VPWR VPWR sky130_fd_sc_hd__decap_3
XFILLER_26_15 VGND VPWR VPWR VGND sky130_ef_sc_hd__decap_12
XANTENNA_mux_bottom_track_25.mux_l1_in_0__A1 chanx_right_in[6] VGND VGND VPWR VPWR
+ sky130_fd_sc_hd__diode_2
Xmux_right_track_26.sky130_fd_sc_hd__buf_4_0_ mux_right_track_26.mux_l2_in_0_/X VGND
+ VGND VPWR VPWR _62_/A sky130_fd_sc_hd__buf_4
XFILLER_12_195 VGND VGND VPWR VPWR sky130_fd_sc_hd__fill_1
XFILLER_8_133 VGND VGND VPWR VPWR sky130_fd_sc_hd__decap_6
Xmem_right_track_18.sky130_fd_sc_hd__dfxtp_1_0_ prog_clk_0_FTB00/X mux_right_track_16.mux_l2_in_0_/S
+ VGND VGND VPWR VPWR mux_right_track_18.mux_l1_in_0_/S sky130_fd_sc_hd__dfxtp_1
XFILLER_5_125 VGND VPWR VPWR VGND sky130_ef_sc_hd__decap_12
XFILLER_5_158 VGND VGND VPWR VPWR sky130_fd_sc_hd__fill_2
XFILLER_32_213 VGND VGND VPWR VPWR sky130_fd_sc_hd__fill_2
XFILLER_23_27 VGND VPWR VPWR VGND sky130_ef_sc_hd__decap_12
XFILLER_2_139 VGND VGND VPWR VPWR sky130_fd_sc_hd__fill_1
X_42_ VGND VGND VPWR VPWR _42_/HI _42_/LO sky130_fd_sc_hd__conb_1
XFILLER_13_93 VGND VPWR VPWR VGND sky130_ef_sc_hd__decap_12
Xmux_bottom_track_25.mux_l2_in_0_ _38_/HI mux_bottom_track_25.mux_l1_in_0_/X ccff_tail
+ VGND VGND VPWR VPWR mux_bottom_track_25.mux_l2_in_0_/X sky130_fd_sc_hd__mux2_1
Xmem_right_track_30.sky130_fd_sc_hd__dfxtp_1_1_ prog_clk_0_FTB00/X mux_right_track_30.mux_l1_in_0_/S
+ VGND VGND VPWR VPWR mux_right_track_30.mux_l2_in_0_/S sky130_fd_sc_hd__dfxtp_1
XFILLER_18_27 VGND VGND VPWR VPWR sky130_fd_sc_hd__fill_1
XFILLER_7_209 VGND VGND VPWR VPWR sky130_fd_sc_hd__fill_2
Xmux_right_track_34.mux_l1_in_0_ chany_bottom_in[1] right_bottom_grid_pin_38_ mux_right_track_34.mux_l1_in_0_/S
+ VGND VGND VPWR VPWR mux_right_track_34.mux_l1_in_0_/X sky130_fd_sc_hd__mux2_1
XANTENNA__48__A SC_IN_TOP VGND VGND VPWR VPWR sky130_fd_sc_hd__diode_2
XFILLER_6_220 VGND VGND VPWR VPWR sky130_fd_sc_hd__decap_3
XFILLER_29_15 VGND VPWR VPWR VGND sky130_ef_sc_hd__decap_12
X_25_ VGND VGND VPWR VPWR _25_/HI _25_/LO sky130_fd_sc_hd__conb_1
XFILLER_19_113 VGND VGND VPWR VPWR sky130_fd_sc_hd__fill_1
Xmux_bottom_track_9.mux_l2_in_0_ _40_/HI mux_bottom_track_9.mux_l1_in_0_/X mux_bottom_track_9.mux_l2_in_0_/S
+ VGND VGND VPWR VPWR mux_bottom_track_9.mux_l2_in_0_/X sky130_fd_sc_hd__mux2_1
XFILLER_3_212 VGND VGND VPWR VPWR sky130_fd_sc_hd__fill_2
XFILLER_19_81 VGND VPWR VPWR VGND sky130_ef_sc_hd__decap_12
XANTENNA_mux_right_track_24.mux_l1_in_1__A1 chany_bottom_in[6] VGND VGND VPWR VPWR
+ sky130_fd_sc_hd__diode_2
XFILLER_31_27 VGND VPWR VPWR VGND sky130_ef_sc_hd__decap_12
XFILLER_16_138 VGND VGND VPWR VPWR sky130_fd_sc_hd__fill_2
XFILLER_16_105 VGND VGND VPWR VPWR sky130_fd_sc_hd__decap_3
XFILLER_15_39 VGND VPWR VPWR VGND sky130_ef_sc_hd__decap_12
XFILLER_0_204 VGND VGND VPWR VPWR sky130_fd_sc_hd__decap_4
XFILLER_21_93 VGND VPWR VPWR VGND sky130_ef_sc_hd__decap_12
XTAP_119 VGND VPWR sky130_fd_sc_hd__tapvpwrvgnd_1
XTAP_108 VGND VPWR sky130_fd_sc_hd__tapvpwrvgnd_1
XANTENNA_mux_right_track_0.mux_l1_in_0__A0 right_bottom_grid_pin_35_ VGND VGND VPWR
+ VPWR sky130_fd_sc_hd__diode_2
XPHY_2 VGND VGND VPWR VPWR sky130_fd_sc_hd__decap_3
XFILLER_26_27 VGND VGND VPWR VPWR sky130_fd_sc_hd__fill_1
XFILLER_21_185 VGND VGND VPWR VPWR sky130_fd_sc_hd__fill_2
XFILLER_7_51 VGND VGND VPWR VPWR sky130_fd_sc_hd__decap_4
XFILLER_12_174 VGND VGND VPWR VPWR sky130_fd_sc_hd__decap_4
XFILLER_12_141 VGND VGND VPWR VPWR sky130_fd_sc_hd__decap_3
XFILLER_8_145 VGND VGND VPWR VPWR sky130_fd_sc_hd__fill_1
XFILLER_12_29 VGND VPWR VPWR VGND sky130_ef_sc_hd__decap_12
XFILLER_5_137 VGND VPWR VPWR VGND sky130_ef_sc_hd__decap_12
XFILLER_27_81 VGND VPWR VPWR VGND sky130_ef_sc_hd__decap_12
XFILLER_17_222 VGND VGND VPWR VPWR sky130_fd_sc_hd__fill_1
XFILLER_4_41 VGND VPWR VPWR VGND sky130_ef_sc_hd__decap_12
XFILLER_4_85 VGND VPWR VPWR VGND sky130_ef_sc_hd__decap_12
XFILLER_23_39 VGND VPWR VPWR VGND sky130_ef_sc_hd__decap_12
XFILLER_14_203 VGND VGND VPWR VPWR sky130_fd_sc_hd__fill_2
XFILLER_1_173 VGND VGND VPWR VPWR sky130_fd_sc_hd__fill_2
X_41_ VGND VGND VPWR VPWR _41_/HI _41_/LO sky130_fd_sc_hd__conb_1
Xmem_right_track_30.sky130_fd_sc_hd__dfxtp_1_0_ prog_clk_0_FTB00/X mux_right_track_28.mux_l2_in_0_/S
+ VGND VGND VPWR VPWR mux_right_track_30.mux_l1_in_0_/S sky130_fd_sc_hd__dfxtp_1
XFILLER_20_29 VGND VPWR VPWR VGND sky130_ef_sc_hd__decap_12
X_24_ VGND VGND VPWR VPWR _24_/HI _24_/LO sky130_fd_sc_hd__conb_1
XFILLER_29_27 VGND VPWR VPWR VGND sky130_ef_sc_hd__decap_12
Xmux_bottom_track_25.mux_l1_in_0_ bottom_left_grid_pin_1_ chanx_right_in[6] mux_bottom_track_25.mux_l1_in_0_/S
+ VGND VGND VPWR VPWR mux_bottom_track_25.mux_l1_in_0_/X sky130_fd_sc_hd__mux2_1
XFILLER_32_3 VGND VPWR VPWR VGND sky130_ef_sc_hd__decap_12
XFILLER_19_169 VGND VGND VPWR VPWR sky130_fd_sc_hd__decap_6
XFILLER_19_93 VGND VPWR VPWR VGND sky130_ef_sc_hd__decap_12
XFILLER_33_194 VGND VGND VPWR VPWR sky130_fd_sc_hd__fill_2
XFILLER_31_39 VGND VPWR VPWR VGND sky130_ef_sc_hd__decap_12
Xmem_right_track_36.sky130_fd_sc_hd__dfxtp_1_1_ prog_clk_0_FTB00/X mux_right_track_36.mux_l1_in_0_/S
+ VGND VGND VPWR VPWR mux_right_track_36.mux_l2_in_0_/S sky130_fd_sc_hd__dfxtp_1
XTAP_109 VGND VPWR sky130_fd_sc_hd__tapvpwrvgnd_1
XANTENNA_mux_right_track_0.mux_l1_in_0__A1 right_top_grid_pin_1_ VGND VGND VPWR VPWR
+ sky130_fd_sc_hd__diode_2
XFILLER_30_175 VGND VGND VPWR VPWR sky130_fd_sc_hd__fill_2
XFILLER_22_109 VGND VPWR VPWR VGND sky130_ef_sc_hd__decap_12
XPHY_3 VGND VGND VPWR VPWR sky130_fd_sc_hd__decap_3
XFILLER_16_83 VGND VGND VPWR VPWR sky130_fd_sc_hd__fill_1
Xmux_bottom_track_9.mux_l1_in_0_ bottom_left_grid_pin_1_ chanx_right_in[14] mux_bottom_track_9.mux_l1_in_0_/S
+ VGND VGND VPWR VPWR mux_bottom_track_9.mux_l1_in_0_/X sky130_fd_sc_hd__mux2_1
XANTENNA__72__A chanx_right_in[15] VGND VGND VPWR VPWR sky130_fd_sc_hd__diode_2
XFILLER_32_93 VGND VGND VPWR VPWR sky130_fd_sc_hd__fill_2
XFILLER_32_82 VGND VGND VPWR VPWR sky130_fd_sc_hd__fill_2
XFILLER_8_179 VGND VGND VPWR VPWR sky130_fd_sc_hd__fill_2
Xmux_bottom_track_9.sky130_fd_sc_hd__buf_4_0_ mux_bottom_track_9.mux_l2_in_0_/X VGND
+ VGND VPWR VPWR _73_/A sky130_fd_sc_hd__buf_4
XFILLER_8_157 VGND VGND VPWR VPWR sky130_fd_sc_hd__fill_2
XFILLER_8_168 VGND VGND VPWR VPWR sky130_fd_sc_hd__fill_2
XFILLER_5_105 VGND VGND VPWR VPWR sky130_fd_sc_hd__decap_6
XFILLER_5_149 VGND VGND VPWR VPWR sky130_fd_sc_hd__decap_3
XFILLER_27_93 VGND VPWR VPWR VGND sky130_ef_sc_hd__decap_12