* NGSPICE file created from sb_0__1_.ext - technology: sky130A

* Black-box entry subcircuit for sky130_fd_sc_hd__dfxtp_1 abstract view
.subckt sky130_fd_sc_hd__dfxtp_1 CLK D VGND VNB VPB VPWR Q
.ends

* Black-box entry subcircuit for sky130_fd_sc_hd__fill_1 abstract view
.subckt sky130_fd_sc_hd__fill_1 VGND VNB VPB VPWR
.ends

* Black-box entry subcircuit for sky130_fd_sc_hd__fill_2 abstract view
.subckt sky130_fd_sc_hd__fill_2 VGND VNB VPB VPWR
.ends

* Black-box entry subcircuit for sky130_fd_sc_hd__decap_12 abstract view
.subckt sky130_fd_sc_hd__decap_12 VGND VNB VPB VPWR
.ends

* Black-box entry subcircuit for sky130_fd_sc_hd__mux2_1 abstract view
.subckt sky130_fd_sc_hd__mux2_1 A0 A1 S VGND VNB VPB VPWR X
.ends

* Black-box entry subcircuit for sky130_fd_sc_hd__diode_2 abstract view
.subckt sky130_fd_sc_hd__diode_2 DIODE VGND VNB VPB VPWR
.ends

* Black-box entry subcircuit for sky130_fd_sc_hd__clkbuf_1 abstract view
.subckt sky130_fd_sc_hd__clkbuf_1 A VGND VNB VPB VPWR X
.ends

* Black-box entry subcircuit for sky130_fd_sc_hd__conb_1 abstract view
.subckt sky130_fd_sc_hd__conb_1 VGND VNB VPB VPWR HI LO
.ends

* Black-box entry subcircuit for sky130_fd_sc_hd__decap_6 abstract view
.subckt sky130_fd_sc_hd__decap_6 VGND VNB VPB VPWR
.ends

* Black-box entry subcircuit for sky130_fd_sc_hd__clkbuf_2 abstract view
.subckt sky130_fd_sc_hd__clkbuf_2 A VGND VNB VPB VPWR X
.ends

* Black-box entry subcircuit for sky130_fd_sc_hd__decap_4 abstract view
.subckt sky130_fd_sc_hd__decap_4 VGND VNB VPB VPWR
.ends

* Black-box entry subcircuit for sky130_fd_sc_hd__tapvpwrvgnd_1 abstract view
.subckt sky130_fd_sc_hd__tapvpwrvgnd_1 VGND VPWR
.ends

* Black-box entry subcircuit for sky130_fd_sc_hd__decap_8 abstract view
.subckt sky130_fd_sc_hd__decap_8 VGND VNB VPB VPWR
.ends

* Black-box entry subcircuit for sky130_fd_sc_hd__decap_3 abstract view
.subckt sky130_fd_sc_hd__decap_3 VGND VNB VPB VPWR
.ends

* Black-box entry subcircuit for sky130_fd_sc_hd__buf_8 abstract view
.subckt sky130_fd_sc_hd__buf_8 A VGND VNB VPB VPWR X
.ends

* Black-box entry subcircuit for sky130_fd_sc_hd__buf_1 abstract view
.subckt sky130_fd_sc_hd__buf_1 A VGND VNB VPB VPWR X
.ends

* Black-box entry subcircuit for sky130_fd_sc_hd__mux2_2 abstract view
.subckt sky130_fd_sc_hd__mux2_2 A0 A1 S VGND VNB VPB VPWR X
.ends

* Black-box entry subcircuit for sky130_fd_sc_hd__clkbuf_16 abstract view
.subckt sky130_fd_sc_hd__clkbuf_16 A VGND VNB VPB VPWR X
.ends

.subckt sb_0__1_ bottom_left_grid_pin_1_ ccff_head ccff_tail chanx_right_in[0] chanx_right_in[10]
+ chanx_right_in[11] chanx_right_in[12] chanx_right_in[13] chanx_right_in[14] chanx_right_in[15]
+ chanx_right_in[16] chanx_right_in[17] chanx_right_in[18] chanx_right_in[19] chanx_right_in[1]
+ chanx_right_in[2] chanx_right_in[3] chanx_right_in[4] chanx_right_in[5] chanx_right_in[6]
+ chanx_right_in[7] chanx_right_in[8] chanx_right_in[9] chanx_right_out[0] chanx_right_out[10]
+ chanx_right_out[11] chanx_right_out[12] chanx_right_out[13] chanx_right_out[14]
+ chanx_right_out[15] chanx_right_out[16] chanx_right_out[17] chanx_right_out[18]
+ chanx_right_out[19] chanx_right_out[1] chanx_right_out[2] chanx_right_out[3] chanx_right_out[4]
+ chanx_right_out[5] chanx_right_out[6] chanx_right_out[7] chanx_right_out[8] chanx_right_out[9]
+ chany_bottom_in[0] chany_bottom_in[10] chany_bottom_in[11] chany_bottom_in[12] chany_bottom_in[13]
+ chany_bottom_in[14] chany_bottom_in[15] chany_bottom_in[16] chany_bottom_in[17]
+ chany_bottom_in[18] chany_bottom_in[19] chany_bottom_in[1] chany_bottom_in[2] chany_bottom_in[3]
+ chany_bottom_in[4] chany_bottom_in[5] chany_bottom_in[6] chany_bottom_in[7] chany_bottom_in[8]
+ chany_bottom_in[9] chany_bottom_out[0] chany_bottom_out[10] chany_bottom_out[11]
+ chany_bottom_out[12] chany_bottom_out[13] chany_bottom_out[14] chany_bottom_out[15]
+ chany_bottom_out[16] chany_bottom_out[17] chany_bottom_out[18] chany_bottom_out[19]
+ chany_bottom_out[1] chany_bottom_out[2] chany_bottom_out[3] chany_bottom_out[4]
+ chany_bottom_out[5] chany_bottom_out[6] chany_bottom_out[7] chany_bottom_out[8]
+ chany_bottom_out[9] chany_top_in[0] chany_top_in[10] chany_top_in[11] chany_top_in[12]
+ chany_top_in[13] chany_top_in[14] chany_top_in[15] chany_top_in[16] chany_top_in[17]
+ chany_top_in[18] chany_top_in[19] chany_top_in[1] chany_top_in[2] chany_top_in[3]
+ chany_top_in[4] chany_top_in[5] chany_top_in[6] chany_top_in[7] chany_top_in[8]
+ chany_top_in[9] chany_top_out[0] chany_top_out[10] chany_top_out[11] chany_top_out[12]
+ chany_top_out[13] chany_top_out[14] chany_top_out[15] chany_top_out[16] chany_top_out[17]
+ chany_top_out[18] chany_top_out[19] chany_top_out[1] chany_top_out[2] chany_top_out[3]
+ chany_top_out[4] chany_top_out[5] chany_top_out[6] chany_top_out[7] chany_top_out[8]
+ chany_top_out[9] prog_clk_0_E_in right_bottom_grid_pin_34_ right_bottom_grid_pin_35_
+ right_bottom_grid_pin_36_ right_bottom_grid_pin_37_ right_bottom_grid_pin_38_ right_bottom_grid_pin_39_
+ right_bottom_grid_pin_40_ right_bottom_grid_pin_41_ top_left_grid_pin_1_ VPWR VGND
Xmem_right_track_20.sky130_fd_sc_hd__dfxtp_1_1_ clkbuf_3_6_0_mem_bottom_track_1.prog_clk/X
+ mux_right_track_20.mux_l1_in_1_/S VGND VGND VPWR VPWR mux_right_track_20.mux_l2_in_0_/S
+ sky130_fd_sc_hd__dfxtp_1
XFILLER_22_166 VGND VGND VPWR VPWR sky130_fd_sc_hd__fill_1
XFILLER_22_188 VGND VGND VPWR VPWR sky130_fd_sc_hd__fill_2
Xmem_right_track_2.sky130_fd_sc_hd__dfxtp_1_0_ clkbuf_3_6_0_mem_bottom_track_1.prog_clk/X
+ mux_right_track_0.mux_l3_in_0_/S VGND VGND VPWR VPWR mux_right_track_2.mux_l1_in_3_/S
+ sky130_fd_sc_hd__dfxtp_1
XFILLER_26_30 VGND VGND VPWR VPWR sky130_fd_sc_hd__decap_12
XFILLER_26_52 VGND VGND VPWR VPWR sky130_fd_sc_hd__fill_2
XFILLER_9_115 VGND VGND VPWR VPWR sky130_fd_sc_hd__fill_1
Xmux_bottom_track_3.mux_l1_in_1_ input5/X input17/X mux_bottom_track_3.mux_l1_in_1_/S
+ VGND VGND VPWR VPWR mux_bottom_track_3.mux_l1_in_1_/X sky130_fd_sc_hd__mux2_1
XFILLER_6_129 VGND VGND VPWR VPWR sky130_fd_sc_hd__fill_2
XFILLER_12_54 VGND VGND VPWR VPWR sky130_fd_sc_hd__decap_12
XANTENNA__124__A _124_/A VGND VGND VPWR VPWR sky130_fd_sc_hd__diode_2
XFILLER_30_209 VGND VGND VPWR VPWR sky130_fd_sc_hd__fill_2
Xmux_right_track_36.sky130_fd_sc_hd__buf_4_0_ mux_right_track_36.mux_l2_in_0_/X VGND
+ VGND VPWR VPWR _084_/A sky130_fd_sc_hd__clkbuf_1
X_062_ VGND VGND VPWR VPWR _062_/HI _062_/LO sky130_fd_sc_hd__conb_1
XANTENNA_input55_A chany_top_in[2] VGND VGND VPWR VPWR sky130_fd_sc_hd__diode_2
XFILLER_2_198 VGND VGND VPWR VPWR sky130_fd_sc_hd__fill_2
XFILLER_0_13 VGND VGND VPWR VPWR sky130_fd_sc_hd__fill_2
Xmem_right_track_8.sky130_fd_sc_hd__dfxtp_1_1_ clkbuf_3_5_0_mem_bottom_track_1.prog_clk/X
+ mux_right_track_8.mux_l1_in_0_/S VGND VGND VPWR VPWR mux_right_track_8.mux_l2_in_1_/S
+ sky130_fd_sc_hd__dfxtp_1
XANTENNA__119__A _119_/A VGND VGND VPWR VPWR sky130_fd_sc_hd__diode_2
XFILLER_18_42 VGND VGND VPWR VPWR sky130_fd_sc_hd__decap_12
XANTENNA_mux_right_track_2.mux_l1_in_2__A1 input68/X VGND VGND VPWR VPWR sky130_fd_sc_hd__diode_2
X_114_ _114_/A VGND VGND VPWR VPWR _114_/X sky130_fd_sc_hd__clkbuf_1
X_045_ VGND VGND VPWR VPWR _045_/HI _045_/LO sky130_fd_sc_hd__conb_1
Xmem_bottom_track_25.sky130_fd_sc_hd__dfxtp_1_2_ clkbuf_3_2_0_mem_bottom_track_1.prog_clk/X
+ mux_bottom_track_25.mux_l2_in_1_/S VGND VGND VPWR VPWR mux_bottom_track_25.mux_l3_in_0_/S
+ sky130_fd_sc_hd__dfxtp_1
XFILLER_29_139 VGND VGND VPWR VPWR sky130_fd_sc_hd__fill_2
Xmux_bottom_track_17.mux_l1_in_0_ _104_/A _095_/A mux_bottom_track_17.mux_l1_in_1_/S
+ VGND VGND VPWR VPWR mux_bottom_track_17.mux_l1_in_0_/X sky130_fd_sc_hd__mux2_1
XFILLER_20_54 VGND VGND VPWR VPWR sky130_fd_sc_hd__decap_6
XFILLER_20_98 VGND VGND VPWR VPWR sky130_fd_sc_hd__fill_1
XANTENNA_input18_A chanx_right_in[5] VGND VGND VPWR VPWR sky130_fd_sc_hd__diode_2
XFILLER_6_12 VGND VGND VPWR VPWR sky130_fd_sc_hd__decap_12
XFILLER_13_3 VGND VGND VPWR VPWR sky130_fd_sc_hd__decap_12
Xoutput75 _077_/X VGND VGND VPWR VPWR chanx_right_out[11] sky130_fd_sc_hd__clkbuf_2
Xmux_bottom_track_3.sky130_fd_sc_hd__buf_4_0_ mux_bottom_track_3.mux_l3_in_0_/X VGND
+ VGND VPWR VPWR _087_/A sky130_fd_sc_hd__clkbuf_1
Xoutput97 _099_/X VGND VGND VPWR VPWR chany_bottom_out[13] sky130_fd_sc_hd__clkbuf_2
Xoutput86 _069_/X VGND VGND VPWR VPWR chanx_right_out[3] sky130_fd_sc_hd__clkbuf_2
XFILLER_31_167 VGND VGND VPWR VPWR sky130_fd_sc_hd__decap_4
XFILLER_31_112 VGND VGND VPWR VPWR sky130_fd_sc_hd__fill_2
XFILLER_16_142 VGND VGND VPWR VPWR sky130_fd_sc_hd__fill_1
XPHY_170 VGND VPWR sky130_fd_sc_hd__tapvpwrvgnd_1
XPHY_192 VGND VPWR sky130_fd_sc_hd__tapvpwrvgnd_1
XPHY_181 VGND VPWR sky130_fd_sc_hd__tapvpwrvgnd_1
Xmem_right_track_20.sky130_fd_sc_hd__dfxtp_1_0_ clkbuf_3_7_0_mem_bottom_track_1.prog_clk/X
+ mux_right_track_18.mux_l2_in_0_/S VGND VGND VPWR VPWR mux_right_track_20.mux_l1_in_1_/S
+ sky130_fd_sc_hd__dfxtp_1
XFILLER_22_123 VGND VGND VPWR VPWR sky130_fd_sc_hd__fill_2
XFILLER_22_134 VGND VGND VPWR VPWR sky130_fd_sc_hd__decap_4
XFILLER_26_42 VGND VGND VPWR VPWR sky130_fd_sc_hd__decap_4
XFILLER_26_75 VGND VGND VPWR VPWR sky130_fd_sc_hd__fill_2
XFILLER_3_68 VGND VGND VPWR VPWR sky130_fd_sc_hd__fill_2
Xmux_bottom_track_3.mux_l1_in_0_ _100_/A _091_/A mux_bottom_track_3.mux_l1_in_1_/S
+ VGND VGND VPWR VPWR mux_bottom_track_3.mux_l1_in_0_/X sky130_fd_sc_hd__mux2_1
XFILLER_8_160 VGND VGND VPWR VPWR sky130_fd_sc_hd__fill_2
XFILLER_8_171 VGND VGND VPWR VPWR sky130_fd_sc_hd__fill_2
XFILLER_8_182 VGND VGND VPWR VPWR sky130_fd_sc_hd__fill_2
Xclkbuf_1_0_0_mem_bottom_track_1.prog_clk clkbuf_0_mem_bottom_track_1.prog_clk/X VGND
+ VGND VPWR VPWR clkbuf_2_1_0_mem_bottom_track_1.prog_clk/A sky130_fd_sc_hd__clkbuf_1
XFILLER_12_66 VGND VGND VPWR VPWR sky130_fd_sc_hd__decap_6
XANTENNA_mux_right_track_10.mux_l2_in_0__A0 input64/X VGND VGND VPWR VPWR sky130_fd_sc_hd__diode_2
XANTENNA_mux_top_track_0.mux_l1_in_0__A1 input71/X VGND VGND VPWR VPWR sky130_fd_sc_hd__diode_2
Xmem_right_track_26.sky130_fd_sc_hd__dfxtp_1_1_ clkbuf_3_4_0_mem_bottom_track_1.prog_clk/X
+ mux_right_track_26.mux_l1_in_0_/S VGND VGND VPWR VPWR mux_right_track_26.mux_l2_in_0_/S
+ sky130_fd_sc_hd__dfxtp_1
XFILLER_23_65 VGND VGND VPWR VPWR sky130_fd_sc_hd__fill_2
X_061_ VGND VGND VPWR VPWR _061_/HI _061_/LO sky130_fd_sc_hd__conb_1
XANTENNA_input48_A chany_top_in[14] VGND VGND VPWR VPWR sky130_fd_sc_hd__diode_2
XFILLER_2_144 VGND VGND VPWR VPWR sky130_fd_sc_hd__fill_2
XFILLER_0_25 VGND VGND VPWR VPWR sky130_fd_sc_hd__decap_4
XFILLER_0_36 VGND VGND VPWR VPWR sky130_fd_sc_hd__fill_2
XFILLER_0_69 VGND VGND VPWR VPWR sky130_fd_sc_hd__fill_1
Xmem_right_track_8.sky130_fd_sc_hd__dfxtp_1_0_ clkbuf_3_5_0_mem_bottom_track_1.prog_clk/X
+ mux_right_track_6.mux_l3_in_0_/S VGND VGND VPWR VPWR mux_right_track_8.mux_l1_in_0_/S
+ sky130_fd_sc_hd__dfxtp_1
XFILLER_20_221 VGND VGND VPWR VPWR sky130_fd_sc_hd__fill_2
XFILLER_18_54 VGND VGND VPWR VPWR sky130_fd_sc_hd__decap_8
XFILLER_18_65 VGND VGND VPWR VPWR sky130_fd_sc_hd__fill_2
XFILLER_18_87 VGND VGND VPWR VPWR sky130_fd_sc_hd__fill_2
XFILLER_18_98 VGND VGND VPWR VPWR sky130_fd_sc_hd__decap_4
X_113_ _113_/A VGND VGND VPWR VPWR _113_/X sky130_fd_sc_hd__clkbuf_1
X_044_ VGND VGND VPWR VPWR _044_/HI _044_/LO sky130_fd_sc_hd__conb_1
XFILLER_29_107 VGND VGND VPWR VPWR sky130_fd_sc_hd__fill_2
Xmem_bottom_track_25.sky130_fd_sc_hd__dfxtp_1_1_ clkbuf_3_2_0_mem_bottom_track_1.prog_clk/X
+ mux_bottom_track_25.mux_l1_in_1_/S VGND VGND VPWR VPWR mux_bottom_track_25.mux_l2_in_1_/S
+ sky130_fd_sc_hd__dfxtp_1
XFILLER_20_66 VGND VGND VPWR VPWR sky130_fd_sc_hd__fill_2
XFILLER_28_195 VGND VGND VPWR VPWR sky130_fd_sc_hd__decap_4
XFILLER_6_24 VGND VGND VPWR VPWR sky130_fd_sc_hd__decap_4
XFILLER_6_57 VGND VGND VPWR VPWR sky130_fd_sc_hd__fill_2
XFILLER_6_79 VGND VGND VPWR VPWR sky130_fd_sc_hd__fill_2
XFILLER_15_66 VGND VGND VPWR VPWR sky130_fd_sc_hd__fill_2
XFILLER_31_65 VGND VGND VPWR VPWR sky130_fd_sc_hd__fill_1
XFILLER_15_88 VGND VGND VPWR VPWR sky130_fd_sc_hd__fill_2
Xoutput76 _078_/X VGND VGND VPWR VPWR chanx_right_out[12] sky130_fd_sc_hd__clkbuf_2
Xoutput98 _100_/X VGND VGND VPWR VPWR chany_bottom_out[14] sky130_fd_sc_hd__clkbuf_2
Xoutput87 _070_/X VGND VGND VPWR VPWR chanx_right_out[4] sky130_fd_sc_hd__clkbuf_2
XANTENNA_input30_A chany_bottom_in[16] VGND VGND VPWR VPWR sky130_fd_sc_hd__diode_2
XPHY_193 VGND VPWR sky130_fd_sc_hd__tapvpwrvgnd_1
XPHY_182 VGND VPWR sky130_fd_sc_hd__tapvpwrvgnd_1
XFILLER_16_198 VGND VGND VPWR VPWR sky130_fd_sc_hd__fill_2
XPHY_160 VGND VPWR sky130_fd_sc_hd__tapvpwrvgnd_1
XPHY_171 VGND VPWR sky130_fd_sc_hd__tapvpwrvgnd_1
Xmem_bottom_track_3.sky130_fd_sc_hd__dfxtp_1_2_ clkbuf_3_1_0_mem_bottom_track_1.prog_clk/X
+ mux_bottom_track_3.mux_l2_in_1_/S VGND VGND VPWR VPWR mux_bottom_track_3.mux_l3_in_0_/S
+ sky130_fd_sc_hd__dfxtp_1
XFILLER_22_146 VGND VGND VPWR VPWR sky130_fd_sc_hd__fill_2
XANTENNA_mux_right_track_6.mux_l1_in_1__A0 input66/X VGND VGND VPWR VPWR sky130_fd_sc_hd__diode_2
XFILLER_21_190 VGND VGND VPWR VPWR sky130_fd_sc_hd__decap_3
XFILLER_3_47 VGND VGND VPWR VPWR sky130_fd_sc_hd__fill_2
Xclkbuf_3_4_0_mem_bottom_track_1.prog_clk clkbuf_3_5_0_mem_bottom_track_1.prog_clk/A
+ VGND VGND VPWR VPWR clkbuf_3_4_0_mem_bottom_track_1.prog_clk/X sky130_fd_sc_hd__clkbuf_1
XFILLER_27_216 VGND VGND VPWR VPWR sky130_fd_sc_hd__fill_1
XFILLER_12_89 VGND VGND VPWR VPWR sky130_fd_sc_hd__decap_4
XFILLER_5_164 VGND VGND VPWR VPWR sky130_fd_sc_hd__fill_2
Xmux_right_track_10.mux_l3_in_0_ mux_right_track_10.mux_l2_in_1_/X mux_right_track_10.mux_l2_in_0_/X
+ mux_right_track_10.mux_l3_in_0_/S VGND VGND VPWR VPWR mux_right_track_10.mux_l3_in_0_/X
+ sky130_fd_sc_hd__mux2_1
Xmem_right_track_26.sky130_fd_sc_hd__dfxtp_1_0_ clkbuf_3_4_0_mem_bottom_track_1.prog_clk/X
+ mux_right_track_24.mux_l3_in_0_/S VGND VGND VPWR VPWR mux_right_track_26.mux_l1_in_0_/S
+ sky130_fd_sc_hd__dfxtp_1
XFILLER_3_3 VGND VGND VPWR VPWR sky130_fd_sc_hd__decap_12
XFILLER_2_123 VGND VGND VPWR VPWR sky130_fd_sc_hd__fill_2
X_060_ VGND VGND VPWR VPWR _060_/HI _060_/LO sky130_fd_sc_hd__conb_1
XFILLER_0_59 VGND VGND VPWR VPWR sky130_fd_sc_hd__fill_2
X_043_ VGND VGND VPWR VPWR _043_/HI _043_/LO sky130_fd_sc_hd__conb_1
X_112_ _112_/A VGND VGND VPWR VPWR _112_/X sky130_fd_sc_hd__clkbuf_1
XANTENNA_input60_A chany_top_in[7] VGND VGND VPWR VPWR sky130_fd_sc_hd__diode_2
Xmux_right_track_10.mux_l2_in_1_ _062_/HI _116_/A mux_right_track_10.mux_l2_in_1_/S
+ VGND VGND VPWR VPWR mux_right_track_10.mux_l2_in_1_/X sky130_fd_sc_hd__mux2_1
Xmem_bottom_track_25.sky130_fd_sc_hd__dfxtp_1_0_ clkbuf_3_2_0_mem_bottom_track_1.prog_clk/X
+ mux_bottom_track_17.mux_l3_in_0_/S VGND VGND VPWR VPWR mux_bottom_track_25.mux_l1_in_1_/S
+ sky130_fd_sc_hd__dfxtp_1
XFILLER_20_89 VGND VGND VPWR VPWR sky130_fd_sc_hd__fill_2
XFILLER_29_87 VGND VGND VPWR VPWR sky130_fd_sc_hd__decap_3
XFILLER_29_65 VGND VGND VPWR VPWR sky130_fd_sc_hd__fill_2
XFILLER_29_43 VGND VGND VPWR VPWR sky130_fd_sc_hd__fill_2
Xmem_top_track_16.sky130_fd_sc_hd__dfxtp_1_2_ clkbuf_3_3_0_mem_bottom_track_1.prog_clk/X
+ mux_top_track_16.mux_l2_in_1_/S VGND VGND VPWR VPWR mux_top_track_16.mux_l3_in_0_/S
+ sky130_fd_sc_hd__dfxtp_1
XFILLER_19_174 VGND VGND VPWR VPWR sky130_fd_sc_hd__decap_3
XFILLER_15_78 VGND VGND VPWR VPWR sky130_fd_sc_hd__fill_2
XFILLER_31_55 VGND VGND VPWR VPWR sky130_fd_sc_hd__fill_2
XFILLER_31_44 VGND VGND VPWR VPWR sky130_fd_sc_hd__decap_4
XFILLER_31_11 VGND VGND VPWR VPWR sky130_fd_sc_hd__decap_3
Xoutput77 _079_/X VGND VGND VPWR VPWR chanx_right_out[13] sky130_fd_sc_hd__clkbuf_2
XFILLER_0_221 VGND VGND VPWR VPWR sky130_fd_sc_hd__fill_2
Xoutput99 _101_/X VGND VGND VPWR VPWR chany_bottom_out[15] sky130_fd_sc_hd__clkbuf_2
Xoutput88 _071_/X VGND VGND VPWR VPWR chanx_right_out[5] sky130_fd_sc_hd__clkbuf_2
XANTENNA_input23_A chany_bottom_in[0] VGND VGND VPWR VPWR sky130_fd_sc_hd__diode_2
XFILLER_16_144 VGND VGND VPWR VPWR sky130_fd_sc_hd__fill_2
XFILLER_16_166 VGND VGND VPWR VPWR sky130_fd_sc_hd__fill_2
XPHY_183 VGND VPWR sky130_fd_sc_hd__tapvpwrvgnd_1
XFILLER_16_188 VGND VGND VPWR VPWR sky130_fd_sc_hd__fill_1
XPHY_150 VGND VPWR sky130_fd_sc_hd__tapvpwrvgnd_1
XPHY_161 VGND VPWR sky130_fd_sc_hd__tapvpwrvgnd_1
XPHY_172 VGND VPWR sky130_fd_sc_hd__tapvpwrvgnd_1
Xmem_bottom_track_3.sky130_fd_sc_hd__dfxtp_1_1_ clkbuf_3_3_0_mem_bottom_track_1.prog_clk/X
+ mux_bottom_track_3.mux_l1_in_1_/S VGND VGND VPWR VPWR mux_bottom_track_3.mux_l2_in_1_/S
+ sky130_fd_sc_hd__dfxtp_1
XANTENNA_mux_right_track_6.mux_l1_in_1__A1 input64/X VGND VGND VPWR VPWR sky130_fd_sc_hd__diode_2
XANTENNA_mux_top_track_2.mux_l1_in_1__A0 _111_/A VGND VGND VPWR VPWR sky130_fd_sc_hd__diode_2
XFILLER_9_118 VGND VGND VPWR VPWR sky130_fd_sc_hd__fill_2
XFILLER_13_169 VGND VGND VPWR VPWR sky130_fd_sc_hd__fill_2
XFILLER_26_99 VGND VGND VPWR VPWR sky130_fd_sc_hd__decap_3
XFILLER_3_15 VGND VGND VPWR VPWR sky130_fd_sc_hd__decap_12
XFILLER_12_79 VGND VGND VPWR VPWR sky130_fd_sc_hd__fill_2
XANTENNA_mux_right_track_4.mux_l1_in_3__A1 _112_/A VGND VGND VPWR VPWR sky130_fd_sc_hd__diode_2
XFILLER_33_209 VGND VGND VPWR VPWR sky130_fd_sc_hd__fill_2
XFILLER_5_187 VGND VGND VPWR VPWR sky130_fd_sc_hd__fill_2
XFILLER_4_80 VGND VGND VPWR VPWR sky130_fd_sc_hd__fill_2
XFILLER_15_209 VGND VGND VPWR VPWR sky130_fd_sc_hd__fill_2
Xprog_clk_0_FTB00 prog_clk_0_E_in VGND VGND VPWR VPWR prog_clk_0_FTB00/X sky130_fd_sc_hd__buf_8
XFILLER_2_102 VGND VGND VPWR VPWR sky130_fd_sc_hd__fill_2
Xmem_bottom_track_9.sky130_fd_sc_hd__dfxtp_1_2_ clkbuf_3_0_0_mem_bottom_track_1.prog_clk/X
+ mux_bottom_track_9.mux_l2_in_1_/S VGND VGND VPWR VPWR mux_bottom_track_9.mux_l3_in_0_/S
+ sky130_fd_sc_hd__dfxtp_1
XFILLER_0_49 VGND VGND VPWR VPWR sky130_fd_sc_hd__fill_2
XFILLER_9_58 VGND VGND VPWR VPWR sky130_fd_sc_hd__decap_4
XFILLER_9_69 VGND VGND VPWR VPWR sky130_fd_sc_hd__fill_2
XFILLER_1_190 VGND VGND VPWR VPWR sky130_fd_sc_hd__fill_2
XFILLER_29_3 VGND VGND VPWR VPWR sky130_fd_sc_hd__decap_12
XFILLER_20_201 VGND VGND VPWR VPWR sky130_fd_sc_hd__fill_1
XFILLER_11_201 VGND VGND VPWR VPWR sky130_fd_sc_hd__fill_2
X_111_ _111_/A VGND VGND VPWR VPWR _111_/X sky130_fd_sc_hd__clkbuf_1
X_042_ VGND VGND VPWR VPWR _042_/HI _042_/LO sky130_fd_sc_hd__conb_1
XANTENNA_mux_bottom_track_5.mux_l1_in_2__A0 input1/X VGND VGND VPWR VPWR sky130_fd_sc_hd__diode_2
XANTENNA_input53_A chany_top_in[19] VGND VGND VPWR VPWR sky130_fd_sc_hd__diode_2
Xmux_right_track_10.mux_l2_in_0_ input64/X mux_right_track_10.mux_l1_in_0_/X mux_right_track_10.mux_l2_in_1_/S
+ VGND VGND VPWR VPWR mux_right_track_10.mux_l2_in_0_/X sky130_fd_sc_hd__mux2_1
Xmux_right_track_8.mux_l3_in_0_ mux_right_track_8.mux_l2_in_1_/X mux_right_track_8.mux_l2_in_0_/X
+ mux_right_track_8.mux_l3_in_0_/S VGND VGND VPWR VPWR mux_right_track_8.mux_l3_in_0_/X
+ sky130_fd_sc_hd__mux2_1
XFILLER_1_92 VGND VGND VPWR VPWR sky130_fd_sc_hd__fill_2
Xmux_top_track_0.mux_l3_in_0_ mux_top_track_0.mux_l2_in_1_/X mux_top_track_0.mux_l2_in_0_/X
+ mux_top_track_0.mux_l3_in_0_/S VGND VGND VPWR VPWR mux_top_track_0.mux_l3_in_0_/X
+ sky130_fd_sc_hd__mux2_1
XFILLER_4_219 VGND VGND VPWR VPWR sky130_fd_sc_hd__decap_4
XFILLER_20_79 VGND VGND VPWR VPWR sky130_fd_sc_hd__fill_2
XFILLER_29_99 VGND VGND VPWR VPWR sky130_fd_sc_hd__decap_4
XFILLER_28_142 VGND VGND VPWR VPWR sky130_fd_sc_hd__fill_1
XFILLER_29_55 VGND VGND VPWR VPWR sky130_fd_sc_hd__fill_2
Xmem_top_track_16.sky130_fd_sc_hd__dfxtp_1_1_ clkbuf_3_3_0_mem_bottom_track_1.prog_clk/X
+ mux_top_track_16.mux_l1_in_1_/S VGND VGND VPWR VPWR mux_top_track_16.mux_l2_in_1_/S
+ sky130_fd_sc_hd__dfxtp_1
XFILLER_19_120 VGND VGND VPWR VPWR sky130_fd_sc_hd__decap_3
XFILLER_19_186 VGND VGND VPWR VPWR sky130_fd_sc_hd__decap_3
XFILLER_25_112 VGND VGND VPWR VPWR sky130_fd_sc_hd__fill_2
Xmem_right_track_12.sky130_fd_sc_hd__dfxtp_1_2_ clkbuf_3_5_0_mem_bottom_track_1.prog_clk/X
+ mux_right_track_12.mux_l2_in_1_/S VGND VGND VPWR VPWR mux_right_track_12.mux_l3_in_0_/S
+ sky130_fd_sc_hd__dfxtp_1
XFILLER_31_89 VGND VGND VPWR VPWR sky130_fd_sc_hd__fill_2
Xoutput78 _080_/X VGND VGND VPWR VPWR chanx_right_out[14] sky130_fd_sc_hd__clkbuf_2
Xoutput89 _072_/X VGND VGND VPWR VPWR chanx_right_out[6] sky130_fd_sc_hd__clkbuf_2
XFILLER_31_115 VGND VGND VPWR VPWR sky130_fd_sc_hd__fill_2
XANTENNA_input16_A chanx_right_in[3] VGND VGND VPWR VPWR sky130_fd_sc_hd__diode_2
Xmux_right_track_8.mux_l2_in_1_ _046_/HI _115_/A mux_right_track_8.mux_l2_in_1_/S
+ VGND VGND VPWR VPWR mux_right_track_8.mux_l2_in_1_/X sky130_fd_sc_hd__mux2_1
XPHY_184 VGND VPWR sky130_fd_sc_hd__tapvpwrvgnd_1
XPHY_173 VGND VPWR sky130_fd_sc_hd__tapvpwrvgnd_1
XPHY_140 VGND VPWR sky130_fd_sc_hd__tapvpwrvgnd_1
XPHY_151 VGND VPWR sky130_fd_sc_hd__tapvpwrvgnd_1
XPHY_162 VGND VPWR sky130_fd_sc_hd__tapvpwrvgnd_1
Xmux_top_track_0.mux_l2_in_1_ _047_/HI mux_top_track_0.mux_l1_in_2_/X mux_top_track_0.mux_l2_in_1_/S
+ VGND VGND VPWR VPWR mux_top_track_0.mux_l2_in_1_/X sky130_fd_sc_hd__mux2_1
XFILLER_11_3 VGND VGND VPWR VPWR sky130_fd_sc_hd__decap_12
Xmem_bottom_track_3.sky130_fd_sc_hd__dfxtp_1_0_ clkbuf_3_2_0_mem_bottom_track_1.prog_clk/X
+ mux_bottom_track_1.mux_l3_in_0_/S VGND VGND VPWR VPWR mux_bottom_track_3.mux_l1_in_1_/S
+ sky130_fd_sc_hd__dfxtp_1
XANTENNA_input8_A chanx_right_in[14] VGND VGND VPWR VPWR sky130_fd_sc_hd__diode_2
XFILLER_13_115 VGND VGND VPWR VPWR sky130_fd_sc_hd__fill_2
XFILLER_26_89 VGND VGND VPWR VPWR sky130_fd_sc_hd__fill_2
XFILLER_13_126 VGND VGND VPWR VPWR sky130_fd_sc_hd__decap_3
XFILLER_3_27 VGND VGND VPWR VPWR sky130_fd_sc_hd__decap_12
XFILLER_8_141 VGND VGND VPWR VPWR sky130_fd_sc_hd__fill_2
XANTENNA_mux_right_track_22.mux_l1_in_0__A0 _085_/A VGND VGND VPWR VPWR sky130_fd_sc_hd__diode_2
Xmux_top_track_0.mux_l1_in_2_ _119_/A _109_/A mux_top_track_0.mux_l1_in_2_/S VGND
+ VGND VPWR VPWR mux_top_track_0.mux_l1_in_2_/X sky130_fd_sc_hd__mux2_1
XFILLER_5_199 VGND VGND VPWR VPWR sky130_fd_sc_hd__fill_2
XFILLER_32_221 VGND VGND VPWR VPWR sky130_fd_sc_hd__fill_2
XFILLER_4_92 VGND VGND VPWR VPWR sky130_fd_sc_hd__fill_2
Xmux_top_track_16.sky130_fd_sc_hd__buf_4_0_ mux_top_track_16.mux_l3_in_0_/X VGND VGND
+ VPWR VPWR _114_/A sky130_fd_sc_hd__clkbuf_1
XFILLER_23_221 VGND VGND VPWR VPWR sky130_fd_sc_hd__fill_2
Xmem_bottom_track_9.sky130_fd_sc_hd__dfxtp_1_1_ clkbuf_3_0_0_mem_bottom_track_1.prog_clk/X
+ mux_bottom_track_9.mux_l1_in_2_/S VGND VGND VPWR VPWR mux_bottom_track_9.mux_l2_in_1_/S
+ sky130_fd_sc_hd__dfxtp_1
XANTENNA_mux_right_track_14.mux_l1_in_0__A1 _099_/A VGND VGND VPWR VPWR sky130_fd_sc_hd__diode_2
XFILLER_9_15 VGND VGND VPWR VPWR sky130_fd_sc_hd__decap_12
XFILLER_14_221 VGND VGND VPWR VPWR sky130_fd_sc_hd__fill_2
XFILLER_18_79 VGND VGND VPWR VPWR sky130_fd_sc_hd__fill_2
X_110_ _110_/A VGND VGND VPWR VPWR _110_/X sky130_fd_sc_hd__clkbuf_1
X_041_ VGND VGND VPWR VPWR _041_/HI _041_/LO sky130_fd_sc_hd__conb_1
XANTENNA_input46_A chany_top_in[12] VGND VGND VPWR VPWR sky130_fd_sc_hd__diode_2
XFILLER_1_82 VGND VGND VPWR VPWR sky130_fd_sc_hd__fill_2
Xmem_top_track_16.sky130_fd_sc_hd__dfxtp_1_0_ clkbuf_3_3_0_mem_bottom_track_1.prog_clk/X
+ mux_top_track_8.mux_l3_in_0_/S VGND VGND VPWR VPWR mux_top_track_16.mux_l1_in_1_/S
+ sky130_fd_sc_hd__dfxtp_1
XFILLER_19_132 VGND VGND VPWR VPWR sky130_fd_sc_hd__fill_2
XFILLER_19_143 VGND VGND VPWR VPWR sky130_fd_sc_hd__fill_2
XFILLER_19_154 VGND VGND VPWR VPWR sky130_fd_sc_hd__decap_4
XFILLER_25_146 VGND VGND VPWR VPWR sky130_fd_sc_hd__fill_2
XFILLER_25_157 VGND VGND VPWR VPWR sky130_fd_sc_hd__fill_2
Xmux_top_track_0.sky130_fd_sc_hd__buf_4_0_ mux_top_track_0.mux_l3_in_0_/X VGND VGND
+ VPWR VPWR _106_/A sky130_fd_sc_hd__buf_1
XFILLER_15_58 VGND VGND VPWR VPWR sky130_fd_sc_hd__decap_8
XFILLER_25_168 VGND VGND VPWR VPWR sky130_fd_sc_hd__decap_3
XANTENNA_mux_right_track_12.mux_l2_in_1__A1 _117_/A VGND VGND VPWR VPWR sky130_fd_sc_hd__diode_2
Xmem_right_track_12.sky130_fd_sc_hd__dfxtp_1_1_ clkbuf_3_5_0_mem_bottom_track_1.prog_clk/X
+ mux_right_track_12.mux_l1_in_0_/S VGND VGND VPWR VPWR mux_right_track_12.mux_l2_in_1_/S
+ sky130_fd_sc_hd__dfxtp_1
XFILLER_31_79 VGND VGND VPWR VPWR sky130_fd_sc_hd__fill_2
XFILLER_0_201 VGND VGND VPWR VPWR sky130_fd_sc_hd__fill_2
Xoutput79 _081_/X VGND VGND VPWR VPWR chanx_right_out[15] sky130_fd_sc_hd__clkbuf_2
Xmux_right_track_10.mux_l1_in_0_ input45/X _096_/A mux_right_track_10.mux_l1_in_0_/S
+ VGND VGND VPWR VPWR mux_right_track_10.mux_l1_in_0_/X sky130_fd_sc_hd__mux2_1
XPHY_130 VGND VPWR sky130_fd_sc_hd__tapvpwrvgnd_1
XPHY_141 VGND VPWR sky130_fd_sc_hd__tapvpwrvgnd_1
XPHY_152 VGND VPWR sky130_fd_sc_hd__tapvpwrvgnd_1
Xmux_right_track_8.mux_l2_in_0_ input63/X mux_right_track_8.mux_l1_in_0_/X mux_right_track_8.mux_l2_in_1_/S
+ VGND VGND VPWR VPWR mux_right_track_8.mux_l2_in_0_/X sky130_fd_sc_hd__mux2_1
XPHY_185 VGND VPWR sky130_fd_sc_hd__tapvpwrvgnd_1
XPHY_174 VGND VPWR sky130_fd_sc_hd__tapvpwrvgnd_1
XPHY_163 VGND VPWR sky130_fd_sc_hd__tapvpwrvgnd_1
Xmux_top_track_0.mux_l2_in_0_ mux_top_track_0.mux_l1_in_1_/X mux_top_track_0.mux_l1_in_0_/X
+ mux_top_track_0.mux_l2_in_1_/S VGND VGND VPWR VPWR mux_top_track_0.mux_l2_in_0_/X
+ sky130_fd_sc_hd__mux2_1
XFILLER_21_90 VGND VGND VPWR VPWR sky130_fd_sc_hd__fill_2
Xmux_right_track_22.mux_l2_in_0_ mux_right_track_22.mux_l1_in_1_/X mux_right_track_22.mux_l1_in_0_/X
+ mux_right_track_22.mux_l2_in_0_/S VGND VGND VPWR VPWR mux_right_track_22.mux_l2_in_0_/X
+ sky130_fd_sc_hd__mux2_1
XFILLER_30_193 VGND VGND VPWR VPWR sky130_fd_sc_hd__fill_2
XFILLER_13_138 VGND VGND VPWR VPWR sky130_fd_sc_hd__fill_2
XFILLER_13_149 VGND VGND VPWR VPWR sky130_fd_sc_hd__fill_2
XFILLER_26_57 VGND VGND VPWR VPWR sky130_fd_sc_hd__fill_2
XFILLER_26_79 VGND VGND VPWR VPWR sky130_fd_sc_hd__fill_2
XFILLER_3_39 VGND VGND VPWR VPWR sky130_fd_sc_hd__decap_8
XFILLER_12_15 VGND VGND VPWR VPWR sky130_fd_sc_hd__decap_12
XANTENNA_mux_right_track_22.mux_l1_in_0__A1 _104_/A VGND VGND VPWR VPWR sky130_fd_sc_hd__diode_2
Xmux_top_track_0.mux_l1_in_1_ input9/X input21/X mux_top_track_0.mux_l1_in_2_/S VGND
+ VGND VPWR VPWR mux_top_track_0.mux_l1_in_1_/X sky130_fd_sc_hd__mux2_1
XFILLER_5_112 VGND VGND VPWR VPWR sky130_fd_sc_hd__fill_2
XFILLER_5_101 VGND VGND VPWR VPWR sky130_fd_sc_hd__fill_2
Xmux_right_track_22.mux_l1_in_1_ _036_/HI _124_/A mux_right_track_22.mux_l1_in_1_/S
+ VGND VGND VPWR VPWR mux_right_track_22.mux_l1_in_1_/X sky130_fd_sc_hd__mux2_1
XANTENNA_mux_bottom_track_17.mux_l1_in_0__A0 _104_/A VGND VGND VPWR VPWR sky130_fd_sc_hd__diode_2
XFILLER_4_60 VGND VGND VPWR VPWR sky130_fd_sc_hd__fill_2
XANTENNA__091__A _091_/A VGND VGND VPWR VPWR sky130_fd_sc_hd__diode_2
XFILLER_23_58 VGND VGND VPWR VPWR sky130_fd_sc_hd__fill_1
XFILLER_23_69 VGND VGND VPWR VPWR sky130_fd_sc_hd__fill_2
Xmem_bottom_track_9.sky130_fd_sc_hd__dfxtp_1_0_ clkbuf_3_0_0_mem_bottom_track_1.prog_clk/X
+ mux_bottom_track_5.mux_l3_in_0_/S VGND VGND VPWR VPWR mux_bottom_track_9.mux_l1_in_2_/S
+ sky130_fd_sc_hd__dfxtp_1
XFILLER_0_18 VGND VGND VPWR VPWR sky130_fd_sc_hd__decap_3
XFILLER_9_27 VGND VGND VPWR VPWR sky130_fd_sc_hd__decap_12
Xmem_bottom_track_17.sky130_fd_sc_hd__dfxtp_1_2_ clkbuf_3_2_0_mem_bottom_track_1.prog_clk/X
+ mux_bottom_track_17.mux_l2_in_1_/S VGND VGND VPWR VPWR mux_bottom_track_17.mux_l3_in_0_/S
+ sky130_fd_sc_hd__dfxtp_1
XFILLER_18_69 VGND VGND VPWR VPWR sky130_fd_sc_hd__fill_2
X_040_ VGND VGND VPWR VPWR _040_/HI _040_/LO sky130_fd_sc_hd__conb_1
XANTENNA_input39_A chany_bottom_in[6] VGND VGND VPWR VPWR sky130_fd_sc_hd__diode_2
Xmux_right_track_10.sky130_fd_sc_hd__buf_4_0_ mux_right_track_10.mux_l3_in_0_/X VGND
+ VGND VPWR VPWR _071_/A sky130_fd_sc_hd__buf_1
XFILLER_1_50 VGND VGND VPWR VPWR sky130_fd_sc_hd__decap_3
XFILLER_1_61 VGND VGND VPWR VPWR sky130_fd_sc_hd__decap_3
XFILLER_1_72 VGND VGND VPWR VPWR sky130_fd_sc_hd__fill_2
XANTENNA_mux_top_track_4.mux_l1_in_2__A0 _121_/A VGND VGND VPWR VPWR sky130_fd_sc_hd__diode_2
XFILLER_20_15 VGND VGND VPWR VPWR sky130_fd_sc_hd__decap_12
XFILLER_28_111 VGND VGND VPWR VPWR sky130_fd_sc_hd__fill_2
XFILLER_28_144 VGND VGND VPWR VPWR sky130_fd_sc_hd__fill_2
XFILLER_28_155 VGND VGND VPWR VPWR sky130_fd_sc_hd__fill_2
XFILLER_28_177 VGND VGND VPWR VPWR sky130_fd_sc_hd__fill_2
XFILLER_28_199 VGND VGND VPWR VPWR sky130_fd_sc_hd__fill_1
XFILLER_6_28 VGND VGND VPWR VPWR sky130_fd_sc_hd__fill_1
XFILLER_3_221 VGND VGND VPWR VPWR sky130_fd_sc_hd__fill_2
XFILLER_10_70 VGND VGND VPWR VPWR sky130_fd_sc_hd__fill_2
XFILLER_15_15 VGND VGND VPWR VPWR sky130_fd_sc_hd__decap_12
XFILLER_31_58 VGND VGND VPWR VPWR sky130_fd_sc_hd__fill_1
XFILLER_31_36 VGND VGND VPWR VPWR sky130_fd_sc_hd__fill_2
Xmem_right_track_12.sky130_fd_sc_hd__dfxtp_1_0_ clkbuf_3_5_0_mem_bottom_track_1.prog_clk/X
+ mux_right_track_10.mux_l3_in_0_/S VGND VGND VPWR VPWR mux_right_track_12.mux_l1_in_0_/S
+ sky130_fd_sc_hd__dfxtp_1
XFILLER_31_69 VGND VGND VPWR VPWR sky130_fd_sc_hd__fill_2
XPHY_175 VGND VPWR sky130_fd_sc_hd__tapvpwrvgnd_1
XPHY_120 VGND VPWR sky130_fd_sc_hd__tapvpwrvgnd_1
XPHY_131 VGND VPWR sky130_fd_sc_hd__tapvpwrvgnd_1
XPHY_142 VGND VPWR sky130_fd_sc_hd__tapvpwrvgnd_1
XPHY_153 VGND VPWR sky130_fd_sc_hd__tapvpwrvgnd_1
XANTENNA_mux_right_track_8.mux_l2_in_1__A1 _115_/A VGND VGND VPWR VPWR sky130_fd_sc_hd__diode_2
XPHY_164 VGND VPWR sky130_fd_sc_hd__tapvpwrvgnd_1
XPHY_186 VGND VPWR sky130_fd_sc_hd__tapvpwrvgnd_1
XFILLER_21_80 VGND VGND VPWR VPWR sky130_fd_sc_hd__fill_2
XANTENNA_mux_right_track_30.mux_l1_in_0__A1 input66/X VGND VGND VPWR VPWR sky130_fd_sc_hd__diode_2
XPHY_0 VGND VGND VPWR VPWR sky130_fd_sc_hd__decap_3
XFILLER_30_183 VGND VGND VPWR VPWR sky130_fd_sc_hd__fill_2
XFILLER_15_191 VGND VGND VPWR VPWR sky130_fd_sc_hd__fill_2
Xmux_bottom_track_33.sky130_fd_sc_hd__buf_4_0_ mux_bottom_track_33.mux_l2_in_0_/X
+ VGND VGND VPWR VPWR _102_/A sky130_fd_sc_hd__clkbuf_1
XANTENNA_mux_bottom_track_25.mux_l1_in_0__A0 _105_/A VGND VGND VPWR VPWR sky130_fd_sc_hd__diode_2
XFILLER_21_150 VGND VGND VPWR VPWR sky130_fd_sc_hd__fill_2
XFILLER_21_172 VGND VGND VPWR VPWR sky130_fd_sc_hd__fill_2
XANTENNA_input21_A chanx_right_in[8] VGND VGND VPWR VPWR sky130_fd_sc_hd__diode_2
XFILLER_8_187 VGND VGND VPWR VPWR sky130_fd_sc_hd__fill_2
XFILLER_8_198 VGND VGND VPWR VPWR sky130_fd_sc_hd__fill_2
Xmux_bottom_track_25.mux_l3_in_0_ mux_bottom_track_25.mux_l2_in_1_/X mux_bottom_track_25.mux_l2_in_0_/X