* NGSPICE file created from sb_0__0_.ext - technology: sky130A

* Black-box entry subcircuit for sky130_fd_sc_hd__diode_2 abstract view
.subckt sky130_fd_sc_hd__diode_2 DIODE VGND VNB VPB VPWR
.ends

* Black-box entry subcircuit for sky130_fd_sc_hd__dfxtp_1 abstract view
.subckt sky130_fd_sc_hd__dfxtp_1 CLK D VGND VNB VPB VPWR Q
.ends

* Black-box entry subcircuit for sky130_fd_sc_hd__tapvpwrvgnd_1 abstract view
.subckt sky130_fd_sc_hd__tapvpwrvgnd_1 VGND VPWR
.ends

* Black-box entry subcircuit for sky130_ef_sc_hd__decap_12 abstract view
.subckt sky130_ef_sc_hd__decap_12 VGND VPWR VPB VNB
.ends

* Black-box entry subcircuit for sky130_fd_sc_hd__decap_8 abstract view
.subckt sky130_fd_sc_hd__decap_8 VGND VNB VPB VPWR
.ends

* Black-box entry subcircuit for sky130_fd_sc_hd__fill_1 abstract view
.subckt sky130_fd_sc_hd__fill_1 VGND VNB VPB VPWR
.ends

* Black-box entry subcircuit for sky130_fd_sc_hd__fill_2 abstract view
.subckt sky130_fd_sc_hd__fill_2 VGND VNB VPB VPWR
.ends

* Black-box entry subcircuit for sky130_fd_sc_hd__clkbuf_1 abstract view
.subckt sky130_fd_sc_hd__clkbuf_1 A VGND VNB VPB VPWR X
.ends

* Black-box entry subcircuit for sky130_fd_sc_hd__decap_6 abstract view
.subckt sky130_fd_sc_hd__decap_6 VGND VNB VPB VPWR
.ends

* Black-box entry subcircuit for sky130_fd_sc_hd__buf_2 abstract view
.subckt sky130_fd_sc_hd__buf_2 A VGND VNB VPB VPWR X
.ends

* Black-box entry subcircuit for sky130_fd_sc_hd__mux2_1 abstract view
.subckt sky130_fd_sc_hd__mux2_1 A0 A1 S VGND VNB VPB VPWR X
.ends

* Black-box entry subcircuit for sky130_fd_sc_hd__decap_3 abstract view
.subckt sky130_fd_sc_hd__decap_3 VGND VNB VPB VPWR
.ends

* Black-box entry subcircuit for sky130_fd_sc_hd__conb_1 abstract view
.subckt sky130_fd_sc_hd__conb_1 VGND VNB VPB VPWR HI LO
.ends

* Black-box entry subcircuit for sky130_fd_sc_hd__decap_4 abstract view
.subckt sky130_fd_sc_hd__decap_4 VGND VNB VPB VPWR
.ends

* Black-box entry subcircuit for sky130_fd_sc_hd__buf_8 abstract view
.subckt sky130_fd_sc_hd__buf_8 A VGND VNB VPB VPWR X
.ends

* Black-box entry subcircuit for sky130_fd_sc_hd__clkbuf_2 abstract view
.subckt sky130_fd_sc_hd__clkbuf_2 A VGND VNB VPB VPWR X
.ends

* Black-box entry subcircuit for sky130_fd_sc_hd__dlymetal6s2s_1 abstract view
.subckt sky130_fd_sc_hd__dlymetal6s2s_1 A VGND VNB VPB VPWR X
.ends

.subckt sb_0__0_ VGND VPWR ccff_head ccff_tail chanx_right_in[0] chanx_right_in[10]
+ chanx_right_in[11] chanx_right_in[12] chanx_right_in[13] chanx_right_in[14] chanx_right_in[15]
+ chanx_right_in[16] chanx_right_in[17] chanx_right_in[18] chanx_right_in[19] chanx_right_in[1]
+ chanx_right_in[2] chanx_right_in[3] chanx_right_in[4] chanx_right_in[5] chanx_right_in[6]
+ chanx_right_in[7] chanx_right_in[8] chanx_right_in[9] chanx_right_out[0] chanx_right_out[10]
+ chanx_right_out[11] chanx_right_out[12] chanx_right_out[13] chanx_right_out[14]
+ chanx_right_out[15] chanx_right_out[16] chanx_right_out[17] chanx_right_out[18]
+ chanx_right_out[19] chanx_right_out[1] chanx_right_out[2] chanx_right_out[3] chanx_right_out[4]
+ chanx_right_out[5] chanx_right_out[6] chanx_right_out[7] chanx_right_out[8] chanx_right_out[9]
+ chany_top_in[0] chany_top_in[10] chany_top_in[11] chany_top_in[12] chany_top_in[13]
+ chany_top_in[14] chany_top_in[15] chany_top_in[16] chany_top_in[17] chany_top_in[18]
+ chany_top_in[19] chany_top_in[1] chany_top_in[2] chany_top_in[3] chany_top_in[4]
+ chany_top_in[5] chany_top_in[6] chany_top_in[7] chany_top_in[8] chany_top_in[9]
+ chany_top_out[0] chany_top_out[10] chany_top_out[11] chany_top_out[12] chany_top_out[13]
+ chany_top_out[14] chany_top_out[15] chany_top_out[16] chany_top_out[17] chany_top_out[18]
+ chany_top_out[19] chany_top_out[1] chany_top_out[2] chany_top_out[3] chany_top_out[4]
+ chany_top_out[5] chany_top_out[6] chany_top_out[7] chany_top_out[8] chany_top_out[9]
+ prog_clk_0_E_in right_bottom_grid_pin_11_ right_bottom_grid_pin_13_ right_bottom_grid_pin_15_
+ right_bottom_grid_pin_17_ right_bottom_grid_pin_1_ right_bottom_grid_pin_3_ right_bottom_grid_pin_5_
+ right_bottom_grid_pin_7_ right_bottom_grid_pin_9_ top_left_grid_pin_1_
XANTENNA_mem_right_track_0.sky130_fd_sc_hd__dfxtp_1_0__CLK prog_clk_0_FTB00/X VGND
+ VGND VPWR VPWR sky130_fd_sc_hd__diode_2
Xmem_right_track_20.sky130_fd_sc_hd__dfxtp_1_1_ prog_clk_0_FTB00/X mux_right_track_20.mux_l1_in_0_/S
+ VGND VGND VPWR VPWR mux_right_track_20.mux_l2_in_0_/S sky130_fd_sc_hd__dfxtp_1
XTAP_177 VGND VPWR sky130_fd_sc_hd__tapvpwrvgnd_1
XTAP_188 VGND VPWR sky130_fd_sc_hd__tapvpwrvgnd_1
XFILLER_22_111 VGND VPWR VPWR VGND sky130_ef_sc_hd__decap_12
XFILLER_22_199 VGND VGND VPWR VPWR sky130_fd_sc_hd__decap_8
Xmem_right_track_2.sky130_fd_sc_hd__dfxtp_1_0_ prog_clk_0_FTB00/X mux_right_track_0.mux_l3_in_0_/S
+ VGND VGND VPWR VPWR mux_right_track_2.mux_l1_in_1_/S sky130_fd_sc_hd__dfxtp_1
XFILLER_13_111 VGND VGND VPWR VPWR sky130_fd_sc_hd__fill_1
XFILLER_13_188 VGND VGND VPWR VPWR sky130_fd_sc_hd__fill_2
X_83_ _83_/A VGND VGND VPWR VPWR _83_/X sky130_fd_sc_hd__clkbuf_1
XFILLER_27_203 VGND VGND VPWR VPWR sky130_fd_sc_hd__fill_2
XFILLER_10_158 VGND VPWR VPWR VGND sky130_ef_sc_hd__decap_12
XFILLER_12_65 VGND VGND VPWR VPWR sky130_fd_sc_hd__decap_8
XFILLER_12_87 VGND VGND VPWR VPWR sky130_fd_sc_hd__fill_2
X_66_ _66_/A VGND VGND VPWR VPWR _66_/X sky130_fd_sc_hd__clkbuf_1
XANTENNA_mux_right_track_4.mux_l1_in_0__A1 input33/X VGND VGND VPWR VPWR sky130_fd_sc_hd__diode_2
Xmux_right_track_36.sky130_fd_sc_hd__buf_4_0_ mux_right_track_36.mux_l2_in_0_/X VGND
+ VGND VPWR VPWR _66_/A sky130_fd_sc_hd__clkbuf_1
XFILLER_2_165 VGND VPWR VPWR VGND sky130_ef_sc_hd__decap_12
XFILLER_2_121 VGND VPWR VPWR VGND sky130_ef_sc_hd__decap_12
XFILLER_0_57 VGND VPWR VPWR VGND sky130_ef_sc_hd__decap_12
Xmem_right_track_8.sky130_fd_sc_hd__dfxtp_1_1_ prog_clk_0_FTB00/X mux_right_track_8.mux_l1_in_1_/S
+ VGND VGND VPWR VPWR mux_right_track_8.mux_l2_in_0_/S sky130_fd_sc_hd__dfxtp_1
XFILLER_9_55 VGND VGND VPWR VPWR sky130_fd_sc_hd__fill_1
XANTENNA_mem_right_track_6.sky130_fd_sc_hd__dfxtp_1_2__CLK prog_clk_0_FTB00/X VGND
+ VGND VPWR VPWR sky130_fd_sc_hd__diode_2
X_49_ _49_/A VGND VGND VPWR VPWR _49_/X sky130_fd_sc_hd__clkbuf_1
XFILLER_4_205 VGND VGND VPWR VPWR sky130_fd_sc_hd__fill_2
XFILLER_20_65 VGND VGND VPWR VPWR sky130_fd_sc_hd__decap_6
XFILLER_20_87 VGND VGND VPWR VPWR sky130_fd_sc_hd__decap_8
XFILLER_29_74 VGND VGND VPWR VPWR sky130_fd_sc_hd__fill_1
XANTENNA_input18_A chanx_right_in[6] VGND VGND VPWR VPWR sky130_fd_sc_hd__diode_2
XFILLER_28_194 VGND VGND VPWR VPWR sky130_fd_sc_hd__fill_2
XFILLER_13_3 VGND VPWR VPWR VGND sky130_ef_sc_hd__decap_12
XANTENNA_mux_right_track_2.mux_l2_in_1__A1 input44/X VGND VGND VPWR VPWR sky130_fd_sc_hd__diode_2
XFILLER_25_153 VGND VPWR VPWR VGND sky130_ef_sc_hd__decap_12
XFILLER_31_42 VGND VGND VPWR VPWR sky130_fd_sc_hd__fill_2
Xoutput75 _79_/X VGND VGND VPWR VPWR chany_top_out[11] sky130_fd_sc_hd__buf_2
Xoutput64 _49_/X VGND VGND VPWR VPWR chanx_right_out[1] sky130_fd_sc_hd__buf_2
Xoutput53 _48_/X VGND VGND VPWR VPWR chanx_right_out[0] sky130_fd_sc_hd__buf_2
Xmux_right_track_38.mux_l1_in_0_ input44/X input31/X mux_right_track_38.mux_l1_in_0_/S
+ VGND VGND VPWR VPWR mux_right_track_38.mux_l1_in_0_/X sky130_fd_sc_hd__mux2_1
XFILLER_31_64 VGND VGND VPWR VPWR sky130_fd_sc_hd__fill_2
Xoutput86 _71_/X VGND VGND VPWR VPWR chany_top_out[3] sky130_fd_sc_hd__buf_2
XFILLER_16_197 VGND VGND VPWR VPWR sky130_fd_sc_hd__fill_1
XFILLER_31_123 VGND VGND VPWR VPWR sky130_fd_sc_hd__fill_1
XTAP_101 VGND VPWR sky130_fd_sc_hd__tapvpwrvgnd_1
XTAP_112 VGND VPWR sky130_fd_sc_hd__tapvpwrvgnd_1
XTAP_123 VGND VPWR sky130_fd_sc_hd__tapvpwrvgnd_1
XTAP_134 VGND VPWR sky130_fd_sc_hd__tapvpwrvgnd_1
XTAP_145 VGND VPWR sky130_fd_sc_hd__tapvpwrvgnd_1
XTAP_156 VGND VPWR sky130_fd_sc_hd__tapvpwrvgnd_1
XTAP_167 VGND VPWR sky130_fd_sc_hd__tapvpwrvgnd_1
XTAP_178 VGND VPWR sky130_fd_sc_hd__tapvpwrvgnd_1
XTAP_189 VGND VPWR sky130_fd_sc_hd__tapvpwrvgnd_1
XANTENNA_mem_right_track_24.sky130_fd_sc_hd__dfxtp_1_0__CLK prog_clk_0_FTB00/X VGND
+ VGND VPWR VPWR sky130_fd_sc_hd__diode_2
Xmem_right_track_20.sky130_fd_sc_hd__dfxtp_1_0_ prog_clk_0_FTB00/X mux_right_track_18.mux_l2_in_0_/S
+ VGND VGND VPWR VPWR mux_right_track_20.mux_l1_in_0_/S sky130_fd_sc_hd__dfxtp_1
XFILLER_22_123 VGND VPWR VPWR VGND sky130_ef_sc_hd__decap_12
XFILLER_22_167 VGND VGND VPWR VPWR sky130_fd_sc_hd__fill_2
XFILLER_9_105 VGND VGND VPWR VPWR sky130_fd_sc_hd__decap_3
XFILLER_13_156 VGND VPWR VPWR VGND sky130_ef_sc_hd__decap_12
XFILLER_3_57 VGND VPWR VPWR VGND sky130_ef_sc_hd__decap_12
X_82_ _82_/A VGND VGND VPWR VPWR _82_/X sky130_fd_sc_hd__clkbuf_1
XFILLER_27_215 VGND VGND VPWR VPWR sky130_fd_sc_hd__fill_2
XANTENNA_mem_right_track_38.sky130_fd_sc_hd__dfxtp_1_1__CLK prog_clk_0_FTB00/X VGND
+ VGND VPWR VPWR sky130_fd_sc_hd__diode_2
XFILLER_10_148 VGND VGND VPWR VPWR sky130_fd_sc_hd__decap_6
XFILLER_12_99 VGND VGND VPWR VPWR sky130_fd_sc_hd__fill_2
XFILLER_33_207 VGND VGND VPWR VPWR sky130_fd_sc_hd__fill_2
XANTENNA_mem_right_track_16.sky130_fd_sc_hd__dfxtp_1_1__CLK prog_clk_0_FTB00/X VGND
+ VGND VPWR VPWR sky130_fd_sc_hd__diode_2
XFILLER_24_207 VGND VGND VPWR VPWR sky130_fd_sc_hd__fill_2
X_65_ _65_/A VGND VGND VPWR VPWR _65_/X sky130_fd_sc_hd__clkbuf_1
XANTENNA_mux_top_track_0.mux_l1_in_0__A1 input51/X VGND VGND VPWR VPWR sky130_fd_sc_hd__diode_2
XFILLER_23_54 VGND VGND VPWR VPWR sky130_fd_sc_hd__fill_2
Xmem_right_track_26.sky130_fd_sc_hd__dfxtp_1_1_ prog_clk_0_FTB00/X mux_right_track_26.mux_l1_in_0_/S
+ VGND VGND VPWR VPWR mux_right_track_26.mux_l2_in_0_/S sky130_fd_sc_hd__dfxtp_1
XFILLER_2_177 VGND VPWR VPWR VGND sky130_ef_sc_hd__decap_12
XANTENNA_input48_A right_bottom_grid_pin_5_ VGND VGND VPWR VPWR sky130_fd_sc_hd__diode_2
XFILLER_2_133 VGND VGND VPWR VPWR sky130_fd_sc_hd__decap_6
XFILLER_0_69 VGND VPWR VPWR VGND sky130_ef_sc_hd__decap_12
Xmem_right_track_8.sky130_fd_sc_hd__dfxtp_1_0_ prog_clk_0_FTB00/X mux_right_track_6.mux_l3_in_0_/S
+ VGND VGND VPWR VPWR mux_right_track_8.mux_l1_in_1_/S sky130_fd_sc_hd__dfxtp_1
X_48_ _48_/A VGND VGND VPWR VPWR _48_/X sky130_fd_sc_hd__clkbuf_1
XFILLER_20_210 VGND VGND VPWR VPWR sky130_fd_sc_hd__fill_2
XFILLER_20_221 VGND VGND VPWR VPWR sky130_fd_sc_hd__fill_2
XFILLER_11_221 VGND VGND VPWR VPWR sky130_fd_sc_hd__fill_2
XFILLER_1_209 VGND VGND VPWR VPWR sky130_fd_sc_hd__fill_2
Xmux_right_track_28.mux_l2_in_0__93 VGND VGND VPWR VPWR mux_right_track_28.mux_l2_in_0_/A0
+ mux_right_track_28.mux_l2_in_0__93/LO sky130_fd_sc_hd__conb_1
XFILLER_15_55 VGND VGND VPWR VPWR sky130_fd_sc_hd__fill_1
XFILLER_25_110 VGND VGND VPWR VPWR sky130_fd_sc_hd__fill_2
XFILLER_25_165 VGND VGND VPWR VPWR sky130_fd_sc_hd__decap_3
XFILLER_31_10 VGND VGND VPWR VPWR sky130_fd_sc_hd__fill_2
XFILLER_31_54 VGND VGND VPWR VPWR sky130_fd_sc_hd__fill_2
Xoutput65 _50_/X VGND VGND VPWR VPWR chanx_right_out[2] sky130_fd_sc_hd__buf_2
Xoutput54 _58_/X VGND VGND VPWR VPWR chanx_right_out[10] sky130_fd_sc_hd__buf_2
Xoutput76 _80_/X VGND VGND VPWR VPWR chany_top_out[12] sky130_fd_sc_hd__buf_2
Xoutput87 _72_/X VGND VGND VPWR VPWR chany_top_out[4] sky130_fd_sc_hd__buf_2
XANTENNA_input30_A chany_top_in[17] VGND VGND VPWR VPWR sky130_fd_sc_hd__diode_2
XTAP_102 VGND VPWR sky130_fd_sc_hd__tapvpwrvgnd_1
XTAP_113 VGND VPWR sky130_fd_sc_hd__tapvpwrvgnd_1
XTAP_124 VGND VPWR sky130_fd_sc_hd__tapvpwrvgnd_1
XTAP_135 VGND VPWR sky130_fd_sc_hd__tapvpwrvgnd_1
XTAP_146 VGND VPWR sky130_fd_sc_hd__tapvpwrvgnd_1
XTAP_157 VGND VPWR sky130_fd_sc_hd__tapvpwrvgnd_1
XTAP_168 VGND VPWR sky130_fd_sc_hd__tapvpwrvgnd_1
XTAP_179 VGND VPWR sky130_fd_sc_hd__tapvpwrvgnd_1
XANTENNA_mux_right_track_6.mux_l1_in_1__A0 input42/X VGND VGND VPWR VPWR sky130_fd_sc_hd__diode_2
XFILLER_22_135 VGND VGND VPWR VPWR sky130_fd_sc_hd__decap_4
XFILLER_26_87 VGND VGND VPWR VPWR sky130_fd_sc_hd__decap_8
XFILLER_3_69 VGND VPWR VPWR VGND sky130_ef_sc_hd__decap_12
X_81_ _81_/A VGND VGND VPWR VPWR _81_/X sky130_fd_sc_hd__clkbuf_1
XFILLER_8_150 VGND VGND VPWR VPWR sky130_fd_sc_hd__decap_4
XFILLER_8_194 VGND VGND VPWR VPWR sky130_fd_sc_hd__fill_2
XFILLER_6_109 VGND VPWR VPWR VGND sky130_ef_sc_hd__decap_12
XFILLER_33_219 VGND VGND VPWR VPWR sky130_fd_sc_hd__decap_4
XFILLER_18_216 VGND VGND VPWR VPWR sky130_fd_sc_hd__fill_2
X_64_ _64_/A VGND VGND VPWR VPWR _64_/X sky130_fd_sc_hd__clkbuf_1
Xmem_right_track_26.sky130_fd_sc_hd__dfxtp_1_0_ prog_clk_0_FTB00/X mux_right_track_24.mux_l2_in_0_/S
+ VGND VGND VPWR VPWR mux_right_track_26.mux_l1_in_0_/S sky130_fd_sc_hd__dfxtp_1
XFILLER_3_3 VGND VPWR VPWR VGND sky130_ef_sc_hd__decap_12
XFILLER_2_189 VGND VGND VPWR VPWR sky130_fd_sc_hd__decap_6
XFILLER_0_15 VGND VPWR VPWR VGND sky130_ef_sc_hd__decap_12
XFILLER_9_57 VGND VPWR VPWR VGND sky130_ef_sc_hd__decap_12
Xmux_right_track_16.mux_l2_in_0__110 VGND VGND VPWR VPWR mux_right_track_16.mux_l2_in_0_/A0
+ mux_right_track_16.mux_l2_in_0__110/LO sky130_fd_sc_hd__conb_1
XFILLER_20_200 VGND VGND VPWR VPWR sky130_fd_sc_hd__decap_3
XFILLER_28_141 VGND VPWR VPWR VGND sky130_ef_sc_hd__decap_12
XFILLER_28_174 VGND VGND VPWR VPWR sky130_fd_sc_hd__decap_4
XFILLER_29_43 VGND VGND VPWR VPWR sky130_fd_sc_hd__fill_1
XFILLER_15_78 VGND VPWR VPWR VGND sky130_ef_sc_hd__decap_12
XFILLER_25_177 VGND VGND VPWR VPWR sky130_fd_sc_hd__fill_1
XFILLER_25_188 VGND VGND VPWR VPWR sky130_fd_sc_hd__decap_4
XFILLER_31_77 VGND VGND VPWR VPWR sky130_fd_sc_hd__fill_2
XFILLER_31_88 VGND VGND VPWR VPWR sky130_fd_sc_hd__fill_2
Xoutput77 _81_/X VGND VGND VPWR VPWR chany_top_out[13] sky130_fd_sc_hd__buf_2
XFILLER_0_221 VGND VGND VPWR VPWR sky130_fd_sc_hd__fill_2
Xoutput66 _51_/X VGND VGND VPWR VPWR chanx_right_out[3] sky130_fd_sc_hd__buf_2
Xoutput55 _59_/X VGND VGND VPWR VPWR chanx_right_out[11] sky130_fd_sc_hd__buf_2
Xoutput88 _73_/X VGND VGND VPWR VPWR chany_top_out[5] sky130_fd_sc_hd__buf_2
XANTENNA_input23_A chany_top_in[10] VGND VGND VPWR VPWR sky130_fd_sc_hd__diode_2
XFILLER_31_169 VGND VGND VPWR VPWR sky130_fd_sc_hd__decap_3
XTAP_103 VGND VPWR sky130_fd_sc_hd__tapvpwrvgnd_1
XTAP_114 VGND VPWR sky130_fd_sc_hd__tapvpwrvgnd_1
XTAP_125 VGND VPWR sky130_fd_sc_hd__tapvpwrvgnd_1
XTAP_136 VGND VPWR sky130_fd_sc_hd__tapvpwrvgnd_1
XTAP_147 VGND VPWR sky130_fd_sc_hd__tapvpwrvgnd_1
XTAP_158 VGND VPWR sky130_fd_sc_hd__tapvpwrvgnd_1
XTAP_169 VGND VPWR sky130_fd_sc_hd__tapvpwrvgnd_1
XANTENNA_mux_right_track_6.mux_l1_in_1__A1 input49/X VGND VGND VPWR VPWR sky130_fd_sc_hd__diode_2
XFILLER_13_169 VGND VPWR VPWR VGND sky130_ef_sc_hd__decap_12
XFILLER_3_15 VGND VPWR VPWR VGND sky130_ef_sc_hd__decap_12
X_80_ _80_/A VGND VGND VPWR VPWR _80_/X sky130_fd_sc_hd__clkbuf_1
XANTENNA_mem_right_track_4.sky130_fd_sc_hd__dfxtp_1_0__CLK prog_clk_0_FTB00/X VGND
+ VGND VPWR VPWR sky130_fd_sc_hd__diode_2
XFILLER_10_117 VGND VGND VPWR VPWR sky130_fd_sc_hd__fill_2
XFILLER_10_139 VGND VGND VPWR VPWR sky130_fd_sc_hd__fill_1
XFILLER_18_206 VGND VGND VPWR VPWR sky130_fd_sc_hd__fill_2
XFILLER_5_198 VGND VGND VPWR VPWR sky130_fd_sc_hd__fill_2
XFILLER_5_165 VGND VGND VPWR VPWR sky130_fd_sc_hd__decap_3
X_63_ _63_/A VGND VGND VPWR VPWR _63_/X sky130_fd_sc_hd__clkbuf_1
XANTENNA_mux_right_track_14.mux_l1_in_0__A0 input49/X VGND VGND VPWR VPWR sky130_fd_sc_hd__diode_2
Xprog_clk_0_FTB00 prog_clk_0_E_in VGND VGND VPWR VPWR prog_clk_0_FTB00/X sky130_fd_sc_hd__buf_8
XFILLER_0_27 VGND VGND VPWR VPWR sky130_fd_sc_hd__fill_1
XFILLER_9_69 VGND VPWR VPWR VGND sky130_ef_sc_hd__decap_12
XFILLER_29_3 VGND VPWR VPWR VGND sky130_ef_sc_hd__decap_12
XFILLER_11_212 VGND VGND VPWR VPWR sky130_fd_sc_hd__fill_2
XFILLER_18_78 VGND VGND VPWR VPWR sky130_fd_sc_hd__decap_6
Xmux_right_track_10.mux_l2_in_0_ mux_right_track_10.mux_l2_in_0_/A0 mux_right_track_10.mux_l1_in_0_/X
+ mux_right_track_10.mux_l2_in_0_/S VGND VGND VPWR VPWR mux_right_track_10.mux_l2_in_0_/X
+ sky130_fd_sc_hd__mux2_1
XFILLER_1_81 VGND VPWR VPWR VGND sky130_ef_sc_hd__decap_12
XFILLER_28_153 VGND VGND VPWR VPWR sky130_fd_sc_hd__decap_3
XFILLER_29_55 VGND VGND VPWR VPWR sky130_fd_sc_hd__fill_1
XFILLER_29_66 VGND VGND VPWR VPWR sky130_fd_sc_hd__fill_2
XFILLER_29_88 VGND VGND VPWR VPWR sky130_fd_sc_hd__decap_6
XFILLER_6_15 VGND VPWR VPWR VGND sky130_ef_sc_hd__decap_12
XFILLER_19_186 VGND VGND VPWR VPWR sky130_fd_sc_hd__fill_2
XFILLER_15_57 VGND VGND VPWR VPWR sky130_fd_sc_hd__decap_8
Xoutput78 _82_/X VGND VGND VPWR VPWR chany_top_out[14] sky130_fd_sc_hd__buf_2
Xoutput67 _52_/X VGND VGND VPWR VPWR chanx_right_out[4] sky130_fd_sc_hd__buf_2
Xoutput56 _60_/X VGND VGND VPWR VPWR chanx_right_out[12] sky130_fd_sc_hd__buf_2
Xoutput89 _74_/X VGND VGND VPWR VPWR chany_top_out[6] sky130_fd_sc_hd__buf_2
XANTENNA_input16_A chanx_right_in[4] VGND VGND VPWR VPWR sky130_fd_sc_hd__diode_2
XFILLER_16_112 VGND VGND VPWR VPWR sky130_fd_sc_hd__fill_2
XFILLER_31_115 VGND VGND VPWR VPWR sky130_fd_sc_hd__fill_2
XFILLER_31_126 VGND VGND VPWR VPWR sky130_fd_sc_hd__fill_2
XFILLER_31_148 VGND VGND VPWR VPWR sky130_fd_sc_hd__fill_2
XTAP_104 VGND VPWR sky130_fd_sc_hd__tapvpwrvgnd_1
XTAP_115 VGND VPWR sky130_fd_sc_hd__tapvpwrvgnd_1
XTAP_126 VGND VPWR sky130_fd_sc_hd__tapvpwrvgnd_1
XTAP_137 VGND VPWR sky130_fd_sc_hd__tapvpwrvgnd_1
XTAP_148 VGND VPWR sky130_fd_sc_hd__tapvpwrvgnd_1
XANTENNA_output84_A _69_/X VGND VGND VPWR VPWR sky130_fd_sc_hd__diode_2
XFILLER_11_3 VGND VPWR VPWR VGND sky130_ef_sc_hd__decap_12
XTAP_159 VGND VPWR sky130_fd_sc_hd__tapvpwrvgnd_1
XANTENNA_input8_A chanx_right_in[15] VGND VGND VPWR VPWR sky130_fd_sc_hd__diode_2
XFILLER_13_115 VGND VPWR VPWR VGND sky130_ef_sc_hd__decap_12
XFILLER_3_27 VGND VPWR VPWR VGND sky130_ef_sc_hd__decap_12
XANTENNA_mem_right_track_28.sky130_fd_sc_hd__dfxtp_1_0__CLK prog_clk_0_FTB00/X VGND
+ VGND VPWR VPWR sky130_fd_sc_hd__diode_2
XANTENNA_mux_right_track_22.mux_l1_in_0__A0 input44/X VGND VGND VPWR VPWR sky130_fd_sc_hd__diode_2
Xmux_right_track_20.mux_l2_in_0__113 VGND VGND VPWR VPWR mux_right_track_20.mux_l2_in_0_/A0
+ mux_right_track_20.mux_l2_in_0__113/LO sky130_fd_sc_hd__conb_1
XFILLER_5_111 VGND VGND VPWR VPWR sky130_fd_sc_hd__fill_1
X_62_ _62_/A VGND VGND VPWR VPWR _62_/X sky130_fd_sc_hd__clkbuf_1
XFILLER_23_221 VGND VGND VPWR VPWR sky130_fd_sc_hd__fill_2
XFILLER_9_15 VGND VPWR VPWR VGND sky130_ef_sc_hd__decap_12
XFILLER_14_221 VGND VGND VPWR VPWR sky130_fd_sc_hd__fill_2
XFILLER_7_217 VGND VGND VPWR VPWR sky130_fd_sc_hd__fill_2
XFILLER_7_206 VGND VGND VPWR VPWR sky130_fd_sc_hd__fill_2
XANTENNA_input46_A right_bottom_grid_pin_1_ VGND VGND VPWR VPWR sky130_fd_sc_hd__diode_2
XFILLER_1_93 VGND VPWR VPWR VGND sky130_ef_sc_hd__decap_12
XFILLER_28_121 VGND VPWR VPWR VGND sky130_ef_sc_hd__decap_12
XFILLER_28_165 VGND VGND VPWR VPWR sky130_fd_sc_hd__decap_6
XFILLER_6_27 VGND VGND VPWR VPWR sky130_fd_sc_hd__fill_1
XFILLER_19_110 VGND VGND VPWR VPWR sky130_fd_sc_hd__fill_2
XFILLER_25_102 VGND VGND VPWR VPWR sky130_fd_sc_hd__decap_8
Xmux_top_track_0.sky130_fd_sc_hd__buf_4_0_ mux_top_track_0.mux_l2_in_0_/X VGND VGND
+ VPWR VPWR _68_/A sky130_fd_sc_hd__clkbuf_1
Xmem_right_track_12.sky130_fd_sc_hd__dfxtp_1_1_ prog_clk_0_FTB00/X mux_right_track_12.mux_l1_in_0_/S
+ VGND VGND VPWR VPWR mux_right_track_12.mux_l2_in_0_/S sky130_fd_sc_hd__dfxtp_1
XFILLER_31_46 VGND VGND VPWR VPWR sky130_fd_sc_hd__decap_6
XFILLER_31_68 VGND VGND VPWR VPWR sky130_fd_sc_hd__fill_2
Xoutput57 _61_/X VGND VGND VPWR VPWR chanx_right_out[13] sky130_fd_sc_hd__buf_2
Xoutput79 _83_/X VGND VGND VPWR VPWR chany_top_out[15] sky130_fd_sc_hd__buf_2
Xmux_right_track_10.mux_l1_in_0_ input47/X input36/X mux_right_track_10.mux_l1_in_0_/S
+ VGND VGND VPWR VPWR mux_right_track_10.mux_l1_in_0_/X sky130_fd_sc_hd__mux2_1
Xoutput68 _53_/X VGND VGND VPWR VPWR chanx_right_out[5] sky130_fd_sc_hd__buf_2
Xmux_right_track_8.mux_l2_in_0_ mux_right_track_8.mux_l1_in_1_/X mux_right_track_8.mux_l1_in_0_/X
+ mux_right_track_8.mux_l2_in_0_/S VGND VGND VPWR VPWR mux_right_track_8.mux_l2_in_0_/X
+ sky130_fd_sc_hd__mux2_1
XFILLER_16_157 VGND VGND VPWR VPWR sky130_fd_sc_hd__fill_2
XTAP_105 VGND VPWR sky130_fd_sc_hd__tapvpwrvgnd_1
XTAP_116 VGND VPWR sky130_fd_sc_hd__tapvpwrvgnd_1
XTAP_127 VGND VPWR sky130_fd_sc_hd__tapvpwrvgnd_1
Xmux_top_track_0.mux_l2_in_0_ mux_top_track_0.mux_l2_in_0_/A0 mux_top_track_0.mux_l1_in_0_/X
+ mux_top_track_0.mux_l2_in_0_/S VGND VGND VPWR VPWR mux_top_track_0.mux_l2_in_0_/X
+ sky130_fd_sc_hd__mux2_1
XTAP_138 VGND VPWR sky130_fd_sc_hd__tapvpwrvgnd_1
XTAP_149 VGND VPWR sky130_fd_sc_hd__tapvpwrvgnd_1
Xmux_right_track_22.mux_l2_in_0_ mux_right_track_22.mux_l2_in_0_/A0 mux_right_track_22.mux_l1_in_0_/X
+ mux_right_track_22.mux_l2_in_0_/S VGND VGND VPWR VPWR mux_right_track_22.mux_l2_in_0_/X
+ sky130_fd_sc_hd__mux2_1
XANTENNA_mux_right_track_30.mux_l1_in_0__A0 input49/X VGND VGND VPWR VPWR sky130_fd_sc_hd__diode_2
XFILLER_30_182 VGND VGND VPWR VPWR sky130_fd_sc_hd__fill_2
XFILLER_7_81 VGND VPWR VPWR VGND sky130_ef_sc_hd__decap_12
XFILLER_13_127 VGND VPWR VPWR VGND sky130_ef_sc_hd__decap_12
XFILLER_21_171 VGND VGND VPWR VPWR sky130_fd_sc_hd__decap_8
XFILLER_3_39 VGND VPWR VPWR VGND sky130_ef_sc_hd__decap_12
XFILLER_8_186 VGND VGND VPWR VPWR sky130_fd_sc_hd__decap_4
XFILLER_8_175 VGND VGND VPWR VPWR sky130_fd_sc_hd__fill_2
XFILLER_8_164 VGND VGND VPWR VPWR sky130_fd_sc_hd__fill_2
XFILLER_12_15 VGND VPWR VPWR VGND sky130_ef_sc_hd__decap_12
Xmux_right_track_8.mux_l1_in_1_ mux_right_track_8.mux_l1_in_1_/A0 input45/X mux_right_track_8.mux_l1_in_1_/S
+ VGND VGND VPWR VPWR mux_right_track_8.mux_l1_in_1_/X sky130_fd_sc_hd__mux2_1
XFILLER_5_189 VGND VGND VPWR VPWR sky130_fd_sc_hd__fill_1
X_61_ _61_/A VGND VGND VPWR VPWR _61_/X sky130_fd_sc_hd__clkbuf_1
XFILLER_32_222 VGND VGND VPWR VPWR sky130_fd_sc_hd__fill_1
XFILLER_23_69 VGND VPWR VPWR VGND sky130_ef_sc_hd__decap_12
XFILLER_0_29 VGND VPWR VPWR VGND sky130_ef_sc_hd__decap_12
XFILLER_9_27 VGND VPWR VPWR VGND sky130_ef_sc_hd__decap_12
XFILLER_1_181 VGND VPWR VPWR VGND sky130_ef_sc_hd__decap_12
XFILLER_1_3 VGND VPWR VPWR VGND sky130_ef_sc_hd__decap_12
XANTENNA_input39_A chany_top_in[7] VGND VGND VPWR VPWR sky130_fd_sc_hd__diode_2
Xmux_right_track_10.sky130_fd_sc_hd__buf_4_0_ mux_right_track_10.mux_l2_in_0_/X VGND
+ VGND VPWR VPWR _53_/A sky130_fd_sc_hd__clkbuf_1
XFILLER_20_15 VGND VPWR VPWR VGND sky130_ef_sc_hd__decap_12
XFILLER_28_133 VGND VGND VPWR VPWR sky130_fd_sc_hd__decap_6
XFILLER_3_221 VGND VGND VPWR VPWR sky130_fd_sc_hd__fill_2
XFILLER_15_15 VGND VPWR VPWR VGND sky130_ef_sc_hd__decap_12
XFILLER_25_169 VGND VGND VPWR VPWR sky130_fd_sc_hd__decap_8
Xmem_right_track_12.sky130_fd_sc_hd__dfxtp_1_0_ prog_clk_0_FTB00/X mux_right_track_10.mux_l2_in_0_/S
+ VGND VGND VPWR VPWR mux_right_track_12.mux_l1_in_0_/S sky130_fd_sc_hd__dfxtp_1
XFILLER_31_14 VGND VPWR VPWR VGND sky130_ef_sc_hd__decap_12
XFILLER_31_36 VGND VGND VPWR VPWR sky130_fd_sc_hd__decap_3
XFILLER_33_191 VGND VGND VPWR VPWR sky130_fd_sc_hd__decap_4
Xoutput69 _54_/X VGND VGND VPWR VPWR chanx_right_out[6] sky130_fd_sc_hd__buf_2
Xoutput58 _62_/X VGND VGND VPWR VPWR chanx_right_out[14] sky130_fd_sc_hd__buf_2
XFILLER_21_91 VGND VGND VPWR VPWR sky130_fd_sc_hd__fill_1
XTAP_106 VGND VPWR sky130_fd_sc_hd__tapvpwrvgnd_1
XTAP_117 VGND VPWR sky130_fd_sc_hd__tapvpwrvgnd_1
XTAP_128 VGND VPWR sky130_fd_sc_hd__tapvpwrvgnd_1
XTAP_139 VGND VPWR sky130_fd_sc_hd__tapvpwrvgnd_1
XPHY_0 VGND VGND VPWR VPWR sky130_fd_sc_hd__decap_3
XFILLER_22_139 VGND VGND VPWR VPWR sky130_fd_sc_hd__fill_1
XANTENNA_mem_right_track_30.sky130_fd_sc_hd__dfxtp_1_0__CLK prog_clk_0_FTB00/X VGND
+ VGND VPWR VPWR sky130_fd_sc_hd__diode_2
XFILLER_30_172 VGND VGND VPWR VPWR sky130_fd_sc_hd__fill_2
XFILLER_30_194 VGND VGND VPWR VPWR sky130_fd_sc_hd__fill_2
XFILLER_7_93 VGND VPWR VPWR VGND sky130_ef_sc_hd__decap_12
XFILLER_13_139 VGND VPWR VPWR VGND sky130_ef_sc_hd__decap_12
XFILLER_26_47 VGND VGND VPWR VPWR sky130_fd_sc_hd__fill_2
XFILLER_26_58 VGND VGND VPWR VPWR sky130_fd_sc_hd__decap_3
XANTENNA_input21_A chanx_right_in[9] VGND VGND VPWR VPWR sky130_fd_sc_hd__diode_2
XFILLER_8_154 VGND VGND VPWR VPWR sky130_fd_sc_hd__fill_1
XFILLER_8_121 VGND VPWR VPWR VGND sky130_ef_sc_hd__decap_12
XFILLER_12_194 VGND VGND VPWR VPWR sky130_fd_sc_hd__fill_2
XFILLER_27_209 VGND VGND VPWR VPWR sky130_fd_sc_hd__fill_2
Xmux_right_track_8.mux_l1_in_0_ input46/X input35/X mux_right_track_8.mux_l1_in_1_/S
+ VGND VGND VPWR VPWR mux_right_track_8.mux_l1_in_0_/X sky130_fd_sc_hd__mux2_1
XFILLER_10_109 VGND VGND VPWR VPWR sky130_fd_sc_hd__fill_1
XFILLER_12_27 VGND VGND VPWR VPWR sky130_fd_sc_hd__fill_1
Xmux_top_track_0.mux_l1_in_0_ input13/X input51/X mux_top_track_0.mux_l1_in_0_/S VGND
+ VGND VPWR VPWR mux_top_track_0.mux_l1_in_0_/X sky130_fd_sc_hd__mux2_1
XFILLER_5_113 VGND VPWR VPWR VGND sky130_ef_sc_hd__decap_12
Xmux_right_track_22.mux_l1_in_0_ input44/X input23/X mux_right_track_22.mux_l1_in_0_/S
+ VGND VGND VPWR VPWR mux_right_track_22.mux_l1_in_0_/X sky130_fd_sc_hd__mux2_1
X_60_ _60_/A VGND VGND VPWR VPWR _60_/X sky130_fd_sc_hd__clkbuf_1
XANTENNA_mem_right_track_8.sky130_fd_sc_hd__dfxtp_1_0__CLK prog_clk_0_FTB00/X VGND
+ VGND VPWR VPWR sky130_fd_sc_hd__diode_2
Xmem_right_track_18.sky130_fd_sc_hd__dfxtp_1_1_ prog_clk_0_FTB00/X mux_right_track_18.mux_l1_in_0_/S
+ VGND VGND VPWR VPWR mux_right_track_18.mux_l2_in_0_/S sky130_fd_sc_hd__dfxtp_1
XANTENNA_mem_right_track_22.sky130_fd_sc_hd__dfxtp_1_1__CLK prog_clk_0_FTB00/X VGND
+ VGND VPWR VPWR sky130_fd_sc_hd__diode_2
XFILLER_32_201 VGND VGND VPWR VPWR sky130_fd_sc_hd__decap_4
Xmux_right_track_34.mux_l2_in_0_ mux_right_track_34.mux_l2_in_0_/A0 mux_right_track_34.mux_l1_in_0_/X
+ mux_right_track_34.mux_l2_in_0_/S VGND VGND VPWR VPWR mux_right_track_34.mux_l2_in_0_/X
+ sky130_fd_sc_hd__mux2_1
XFILLER_4_83 VGND VGND VPWR VPWR sky130_fd_sc_hd__fill_1
XFILLER_23_15 VGND VPWR VPWR VGND sky130_ef_sc_hd__decap_12
XFILLER_23_201 VGND VGND VPWR VPWR sky130_fd_sc_hd__decap_4
Xmux_right_track_8.sky130_fd_sc_hd__buf_4_0_ mux_right_track_8.mux_l2_in_0_/X VGND
+ VGND VPWR VPWR _52_/A sky130_fd_sc_hd__clkbuf_1
XFILLER_14_212 VGND VGND VPWR VPWR sky130_fd_sc_hd__fill_2
XFILLER_9_39 VGND VPWR VPWR VGND sky130_ef_sc_hd__decap_12
XFILLER_20_215 VGND VGND VPWR VPWR sky130_fd_sc_hd__fill_2
XFILLER_18_15 VGND VPWR VPWR VGND sky130_ef_sc_hd__decap_12
XFILLER_18_37 VGND VGND VPWR VPWR sky130_fd_sc_hd__fill_2
XFILLER_18_48 VGND VGND VPWR VPWR sky130_fd_sc_hd__fill_2
XFILLER_18_59 VGND VGND VPWR VPWR sky130_fd_sc_hd__fill_2
XFILLER_11_204 VGND VGND VPWR VPWR sky130_fd_sc_hd__decap_4
XFILLER_24_80 VGND VGND VPWR VPWR sky130_fd_sc_hd__decap_4
XFILLER_27_3 VGND VPWR VPWR VGND sky130_ef_sc_hd__decap_12
Xmux_right_track_36.mux_l2_in_0__97 VGND VGND VPWR VPWR mux_right_track_36.mux_l2_in_0_/A0
+ mux_right_track_36.mux_l2_in_0__97/LO sky130_fd_sc_hd__conb_1
XFILLER_1_51 VGND VGND VPWR VPWR sky130_fd_sc_hd__decap_4
XFILLER_20_27 VGND VGND VPWR VPWR sky130_fd_sc_hd__fill_1
XFILLER_29_47 VGND VGND VPWR VPWR sky130_fd_sc_hd__decap_8
XFILLER_6_29 VGND VPWR VPWR VGND sky130_ef_sc_hd__decap_12
XANTENNA_input51_A top_left_grid_pin_1_ VGND VGND VPWR VPWR sky130_fd_sc_hd__diode_2
XFILLER_19_80 VGND VGND VPWR VPWR sky130_fd_sc_hd__fill_2
XFILLER_19_156 VGND VGND VPWR VPWR sky130_fd_sc_hd__fill_2
XFILLER_15_27 VGND VPWR VPWR VGND sky130_ef_sc_hd__decap_12
XFILLER_25_115 VGND VPWR VPWR VGND sky130_ef_sc_hd__decap_12
Xmux_right_track_32.sky130_fd_sc_hd__buf_4_0_ mux_right_track_32.mux_l2_in_0_/X VGND
+ VGND VPWR VPWR _64_/A sky130_fd_sc_hd__clkbuf_1
XFILLER_31_26 VGND VGND VPWR VPWR sky130_fd_sc_hd__decap_8
XFILLER_0_203 VGND VGND VPWR VPWR sky130_fd_sc_hd__fill_2
Xoutput59 _63_/X VGND VGND VPWR VPWR chanx_right_out[15] sky130_fd_sc_hd__buf_2
XFILLER_21_70 VGND VGND VPWR VPWR sky130_fd_sc_hd__decap_6
XTAP_107 VGND VPWR sky130_fd_sc_hd__tapvpwrvgnd_1
XTAP_118 VGND VPWR sky130_fd_sc_hd__tapvpwrvgnd_1
XTAP_129 VGND VPWR sky130_fd_sc_hd__tapvpwrvgnd_1
XPHY_1 VGND VGND VPWR VPWR sky130_fd_sc_hd__decap_3
XFILLER_26_15 VGND VPWR VPWR VGND sky130_ef_sc_hd__decap_12
XFILLER_26_37 VGND VGND VPWR VPWR sky130_fd_sc_hd__fill_1
XFILLER_13_107 VGND VGND VPWR VPWR sky130_fd_sc_hd__decap_4
XANTENNA_input14_A chanx_right_in[2] VGND VGND VPWR VPWR sky130_fd_sc_hd__diode_2
XFILLER_8_133 VGND VGND VPWR VPWR sky130_fd_sc_hd__fill_1
XFILLER_12_173 VGND VGND VPWR VPWR sky130_fd_sc_hd__fill_2
Xmux_right_track_26.sky130_fd_sc_hd__buf_4_0_ mux_right_track_26.mux_l2_in_0_/X VGND
+ VGND VPWR VPWR _61_/A sky130_fd_sc_hd__clkbuf_1
XANTENNA_input6_A chanx_right_in[13] VGND VGND VPWR VPWR sky130_fd_sc_hd__diode_2
XFILLER_26_221 VGND VGND VPWR VPWR sky130_fd_sc_hd__fill_2
XFILLER_5_169 VGND VPWR VPWR VGND sky130_ef_sc_hd__decap_12
XFILLER_5_125 VGND VPWR VPWR VGND sky130_ef_sc_hd__decap_12
XFILLER_17_221 VGND VGND VPWR VPWR sky130_fd_sc_hd__fill_2
Xmem_right_track_18.sky130_fd_sc_hd__dfxtp_1_0_ prog_clk_0_FTB00/X mux_right_track_16.mux_l2_in_0_/S
+ VGND VGND VPWR VPWR mux_right_track_18.mux_l1_in_0_/S sky130_fd_sc_hd__dfxtp_1
XFILLER_23_27 VGND VPWR VPWR VGND sky130_ef_sc_hd__decap_12
XFILLER_2_139 VGND VGND VPWR VPWR sky130_fd_sc_hd__fill_1
XFILLER_14_202 VGND VGND VPWR VPWR sky130_fd_sc_hd__fill_2
XFILLER_1_161 VGND VGND VPWR VPWR sky130_fd_sc_hd__decap_6
XFILLER_20_205 VGND VGND VPWR VPWR sky130_fd_sc_hd__fill_2
XFILLER_18_27 VGND VGND VPWR VPWR sky130_fd_sc_hd__fill_1
Xmem_right_track_30.sky130_fd_sc_hd__dfxtp_1_1_ prog_clk_0_FTB00/X mux_right_track_30.mux_l1_in_0_/S
+ VGND VGND VPWR VPWR mux_right_track_30.mux_l2_in_0_/S sky130_fd_sc_hd__dfxtp_1
Xmux_right_track_34.mux_l1_in_0_ input42/X input29/X mux_right_track_34.mux_l1_in_0_/S
+ VGND VGND VPWR VPWR mux_right_track_34.mux_l1_in_0_/X sky130_fd_sc_hd__mux2_1
XFILLER_24_70 VGND VGND VPWR VPWR sky130_fd_sc_hd__fill_1
XFILLER_29_15 VGND VPWR VPWR VGND sky130_ef_sc_hd__decap_12
XANTENNA_input44_A right_bottom_grid_pin_15_ VGND VGND VPWR VPWR sky130_fd_sc_hd__diode_2
XFILLER_10_83 VGND VGND VPWR VPWR sky130_fd_sc_hd__fill_1
XFILLER_19_92 VGND VGND VPWR VPWR sky130_fd_sc_hd__fill_2
XFILLER_15_39 VGND VPWR VPWR VGND sky130_ef_sc_hd__decap_12
XFILLER_25_127 VGND VGND VPWR VPWR sky130_fd_sc_hd__decap_6
XFILLER_25_149 VGND VGND VPWR VPWR sky130_fd_sc_hd__fill_2
XFILLER_16_116 VGND VGND VPWR VPWR sky130_fd_sc_hd__decap_6
XFILLER_16_138 VGND VGND VPWR VPWR sky130_fd_sc_hd__fill_2
XFILLER_31_119 VGND VGND VPWR VPWR sky130_fd_sc_hd__decap_4