* NGSPICE file created from sb_0__0_.ext - technology: sky130A

* Black-box entry subcircuit for sky130_fd_sc_hd__tapvpwrvgnd_1 abstract view
.subckt sky130_fd_sc_hd__tapvpwrvgnd_1 VGND VPWR
.ends

* Black-box entry subcircuit for sky130_fd_sc_hd__dfxtp_1 abstract view
.subckt sky130_fd_sc_hd__dfxtp_1 CLK D VGND VNB VPB VPWR Q
.ends

* Black-box entry subcircuit for sky130_fd_sc_hd__diode_2 abstract view
.subckt sky130_fd_sc_hd__diode_2 DIODE VGND VNB VPB VPWR
.ends

* Black-box entry subcircuit for sky130_fd_sc_hd__buf_2 abstract view
.subckt sky130_fd_sc_hd__buf_2 A VGND VNB VPB VPWR X
.ends

* Black-box entry subcircuit for sky130_fd_sc_hd__decap_6 abstract view
.subckt sky130_fd_sc_hd__decap_6 VGND VNB VPB VPWR
.ends

* Black-box entry subcircuit for sky130_fd_sc_hd__fill_2 abstract view
.subckt sky130_fd_sc_hd__fill_2 VGND VNB VPB VPWR
.ends

* Black-box entry subcircuit for sky130_ef_sc_hd__decap_12 abstract view
.subckt sky130_ef_sc_hd__decap_12 VGND VPWR VPB VNB
.ends

* Black-box entry subcircuit for sky130_fd_sc_hd__decap_3 abstract view
.subckt sky130_fd_sc_hd__decap_3 VGND VNB VPB VPWR
.ends

* Black-box entry subcircuit for sky130_fd_sc_hd__buf_4 abstract view
.subckt sky130_fd_sc_hd__buf_4 A VGND VNB VPB VPWR X
.ends

* Black-box entry subcircuit for sky130_fd_sc_hd__decap_8 abstract view
.subckt sky130_fd_sc_hd__decap_8 VGND VNB VPB VPWR
.ends

* Black-box entry subcircuit for sky130_fd_sc_hd__fill_1 abstract view
.subckt sky130_fd_sc_hd__fill_1 VGND VNB VPB VPWR
.ends

* Black-box entry subcircuit for sky130_fd_sc_hd__mux2_1 abstract view
.subckt sky130_fd_sc_hd__mux2_1 A0 A1 S VGND VNB VPB VPWR X
.ends

* Black-box entry subcircuit for sky130_fd_sc_hd__decap_4 abstract view
.subckt sky130_fd_sc_hd__decap_4 VGND VNB VPB VPWR
.ends

* Black-box entry subcircuit for sky130_fd_sc_hd__conb_1 abstract view
.subckt sky130_fd_sc_hd__conb_1 VGND VNB VPB VPWR HI LO
.ends

* Black-box entry subcircuit for sky130_fd_sc_hd__buf_8 abstract view
.subckt sky130_fd_sc_hd__buf_8 A VGND VNB VPB VPWR X
.ends

.subckt sb_0__0_ VGND VPWR ccff_head ccff_tail chanx_right_in[0] chanx_right_in[10]
+ chanx_right_in[11] chanx_right_in[12] chanx_right_in[13] chanx_right_in[14] chanx_right_in[15]
+ chanx_right_in[16] chanx_right_in[17] chanx_right_in[18] chanx_right_in[19] chanx_right_in[1]
+ chanx_right_in[2] chanx_right_in[3] chanx_right_in[4] chanx_right_in[5] chanx_right_in[6]
+ chanx_right_in[7] chanx_right_in[8] chanx_right_in[9] chanx_right_out[0] chanx_right_out[10]
+ chanx_right_out[11] chanx_right_out[12] chanx_right_out[13] chanx_right_out[14]
+ chanx_right_out[15] chanx_right_out[16] chanx_right_out[17] chanx_right_out[18]
+ chanx_right_out[19] chanx_right_out[1] chanx_right_out[2] chanx_right_out[3] chanx_right_out[4]
+ chanx_right_out[5] chanx_right_out[6] chanx_right_out[7] chanx_right_out[8] chanx_right_out[9]
+ chany_top_in[0] chany_top_in[10] chany_top_in[11] chany_top_in[12] chany_top_in[13]
+ chany_top_in[14] chany_top_in[15] chany_top_in[16] chany_top_in[17] chany_top_in[18]
+ chany_top_in[19] chany_top_in[1] chany_top_in[2] chany_top_in[3] chany_top_in[4]
+ chany_top_in[5] chany_top_in[6] chany_top_in[7] chany_top_in[8] chany_top_in[9]
+ chany_top_out[0] chany_top_out[10] chany_top_out[11] chany_top_out[12] chany_top_out[13]
+ chany_top_out[14] chany_top_out[15] chany_top_out[16] chany_top_out[17] chany_top_out[18]
+ chany_top_out[19] chany_top_out[1] chany_top_out[2] chany_top_out[3] chany_top_out[4]
+ chany_top_out[5] chany_top_out[6] chany_top_out[7] chany_top_out[8] chany_top_out[9]
+ prog_clk_0_E_in right_bottom_grid_pin_11_ right_bottom_grid_pin_13_ right_bottom_grid_pin_15_
+ right_bottom_grid_pin_17_ right_bottom_grid_pin_1_ right_bottom_grid_pin_3_ right_bottom_grid_pin_5_
+ right_bottom_grid_pin_7_ right_bottom_grid_pin_9_ top_left_grid_pin_1_
XTAP_188 VGND VPWR sky130_fd_sc_hd__tapvpwrvgnd_1
Xmem_right_track_20.sky130_fd_sc_hd__dfxtp_1_1_ prog_clk_0_FTB00/X mux_right_track_20.mux_l1_in_0_/S
+ VGND VGND VPWR VPWR mux_right_track_20.mux_l2_in_0_/S sky130_fd_sc_hd__dfxtp_1
XTAP_177 VGND VPWR sky130_fd_sc_hd__tapvpwrvgnd_1
XANTENNA_mem_right_track_0.sky130_fd_sc_hd__dfxtp_1_0__CLK prog_clk_0_FTB00/X VGND
+ VGND VPWR VPWR sky130_fd_sc_hd__diode_2
Xmem_right_track_2.sky130_fd_sc_hd__dfxtp_1_0_ prog_clk_0_FTB00/X mux_right_track_0.mux_l3_in_0_/S
+ VGND VGND VPWR VPWR mux_right_track_2.mux_l1_in_1_/S sky130_fd_sc_hd__dfxtp_1
X_83_ chanx_right_in[16] VGND VGND VPWR VPWR chany_top_out[15] sky130_fd_sc_hd__buf_2
XFILLER_26_85 VGND VGND VPWR VPWR sky130_fd_sc_hd__decap_6
XFILLER_26_41 VGND VGND VPWR VPWR sky130_fd_sc_hd__fill_2
XANTENNA_mem_right_track_4.sky130_fd_sc_hd__dfxtp_1_2__D mux_right_track_4.mux_l2_in_1_/S
+ VGND VGND VPWR VPWR sky130_fd_sc_hd__diode_2
XFILLER_33_206 VGND VGND VPWR VPWR sky130_fd_sc_hd__fill_2
XFILLER_12_65 VGND VPWR VPWR VGND sky130_ef_sc_hd__decap_12
X_66_ _66_/A VGND VGND VPWR VPWR chanx_right_out[18] sky130_fd_sc_hd__buf_2
XFILLER_5_151 VGND VGND VPWR VPWR sky130_fd_sc_hd__decap_3
Xmux_right_track_36.sky130_fd_sc_hd__buf_4_0_ mux_right_track_36.mux_l2_in_0_/X VGND
+ VGND VPWR VPWR _66_/A sky130_fd_sc_hd__buf_4
XANTENNA_mux_top_track_0.mux_l1_in_0__A0 chanx_right_in[1] VGND VGND VPWR VPWR sky130_fd_sc_hd__diode_2
XANTENNA_mux_right_track_4.mux_l1_in_0__A1 chany_top_in[1] VGND VGND VPWR VPWR sky130_fd_sc_hd__diode_2
Xmem_right_track_8.sky130_fd_sc_hd__dfxtp_1_1_ prog_clk_0_FTB00/X mux_right_track_8.mux_l1_in_1_/S
+ VGND VGND VPWR VPWR mux_right_track_8.mux_l2_in_0_/S sky130_fd_sc_hd__dfxtp_1
XFILLER_0_57 VGND VPWR VPWR VGND sky130_ef_sc_hd__decap_12
XFILLER_2_187 VGND VGND VPWR VPWR sky130_fd_sc_hd__decap_8
XFILLER_9_55 VGND VGND VPWR VPWR sky130_fd_sc_hd__fill_1
XANTENNA_mem_right_track_6.sky130_fd_sc_hd__dfxtp_1_2__CLK prog_clk_0_FTB00/X VGND
+ VGND VPWR VPWR sky130_fd_sc_hd__diode_2
X_49_ _49_/A VGND VGND VPWR VPWR chanx_right_out[1] sky130_fd_sc_hd__buf_2
XFILLER_29_117 VGND VGND VPWR VPWR sky130_fd_sc_hd__fill_1
XFILLER_29_41 VGND VPWR VPWR VGND sky130_ef_sc_hd__decap_12
XFILLER_28_172 VGND VGND VPWR VPWR sky130_fd_sc_hd__fill_2
XFILLER_20_98 VGND VGND VPWR VPWR sky130_fd_sc_hd__decap_3
XFILLER_20_65 VGND VGND VPWR VPWR sky130_fd_sc_hd__fill_2
XFILLER_20_54 VGND VGND VPWR VPWR sky130_fd_sc_hd__fill_2
XFILLER_13_3 VGND VPWR VPWR VGND sky130_ef_sc_hd__decap_12
XANTENNA_mux_right_track_0.mux_l1_in_1__S mux_right_track_0.mux_l1_in_2_/S VGND VGND
+ VPWR VPWR sky130_fd_sc_hd__diode_2
XFILLER_31_53 VGND VGND VPWR VPWR sky130_fd_sc_hd__decap_3
XANTENNA_mux_right_track_2.mux_l2_in_1__A1 right_bottom_grid_pin_15_ VGND VGND VPWR
+ VPWR sky130_fd_sc_hd__diode_2
XFILLER_31_145 VGND VPWR VPWR VGND sky130_ef_sc_hd__decap_12
Xmux_right_track_38.mux_l1_in_0_ right_bottom_grid_pin_15_ chany_top_in[18] mux_right_track_38.mux_l1_in_0_/S
+ VGND VGND VPWR VPWR mux_right_track_38.mux_l1_in_0_/X sky130_fd_sc_hd__mux2_1
XFILLER_16_131 VGND VGND VPWR VPWR sky130_fd_sc_hd__decap_8
XTAP_189 VGND VPWR sky130_fd_sc_hd__tapvpwrvgnd_1
XTAP_178 VGND VPWR sky130_fd_sc_hd__tapvpwrvgnd_1
Xmem_right_track_20.sky130_fd_sc_hd__dfxtp_1_0_ prog_clk_0_FTB00/X mux_right_track_18.mux_l2_in_0_/S
+ VGND VGND VPWR VPWR mux_right_track_20.mux_l1_in_0_/S sky130_fd_sc_hd__dfxtp_1
XTAP_167 VGND VPWR sky130_fd_sc_hd__tapvpwrvgnd_1
XTAP_156 VGND VPWR sky130_fd_sc_hd__tapvpwrvgnd_1
XANTENNA_mem_right_track_24.sky130_fd_sc_hd__dfxtp_1_0__CLK prog_clk_0_FTB00/X VGND
+ VGND VPWR VPWR sky130_fd_sc_hd__diode_2
XFILLER_22_134 VGND VGND VPWR VPWR sky130_fd_sc_hd__decap_6
XTAP_145 VGND VPWR sky130_fd_sc_hd__tapvpwrvgnd_1
XTAP_134 VGND VPWR sky130_fd_sc_hd__tapvpwrvgnd_1
XTAP_123 VGND VPWR sky130_fd_sc_hd__tapvpwrvgnd_1
XTAP_112 VGND VPWR sky130_fd_sc_hd__tapvpwrvgnd_1
XTAP_101 VGND VPWR sky130_fd_sc_hd__tapvpwrvgnd_1
XFILLER_26_75 VGND VGND VPWR VPWR sky130_fd_sc_hd__decap_8
XFILLER_13_145 VGND VGND VPWR VPWR sky130_fd_sc_hd__decap_3
XFILLER_3_57 VGND VPWR VPWR VGND sky130_ef_sc_hd__decap_12
XFILLER_9_116 VGND VPWR VPWR VGND sky130_ef_sc_hd__decap_12
XFILLER_9_149 VGND VPWR VPWR VGND sky130_ef_sc_hd__decap_12
X_82_ chanx_right_in[15] VGND VGND VPWR VPWR chany_top_out[14] sky130_fd_sc_hd__buf_2
XFILLER_8_160 VGND VPWR VPWR VGND sky130_ef_sc_hd__decap_12
XANTENNA_mem_right_track_38.sky130_fd_sc_hd__dfxtp_1_1__CLK prog_clk_0_FTB00/X VGND
+ VGND VPWR VPWR sky130_fd_sc_hd__diode_2
XFILLER_12_77 VGND VGND VPWR VPWR sky130_fd_sc_hd__decap_6
X_65_ _65_/A VGND VGND VPWR VPWR chanx_right_out[17] sky130_fd_sc_hd__buf_2
XANTENNA_mem_right_track_16.sky130_fd_sc_hd__dfxtp_1_1__CLK prog_clk_0_FTB00/X VGND
+ VGND VPWR VPWR sky130_fd_sc_hd__diode_2
XFILLER_5_163 VGND VGND VPWR VPWR sky130_fd_sc_hd__decap_4
XFILLER_23_54 VGND VGND VPWR VPWR sky130_fd_sc_hd__fill_2
XANTENNA_mux_top_track_0.mux_l1_in_0__A1 top_left_grid_pin_1_ VGND VGND VPWR VPWR
+ sky130_fd_sc_hd__diode_2
Xmem_right_track_26.sky130_fd_sc_hd__dfxtp_1_1_ prog_clk_0_FTB00/X mux_right_track_26.mux_l1_in_0_/S
+ VGND VGND VPWR VPWR mux_right_track_26.mux_l2_in_0_/S sky130_fd_sc_hd__dfxtp_1
XFILLER_23_76 VGND VPWR VPWR VGND sky130_ef_sc_hd__decap_12
Xmem_right_track_8.sky130_fd_sc_hd__dfxtp_1_0_ prog_clk_0_FTB00/X mux_right_track_6.mux_l3_in_0_/S
+ VGND VGND VPWR VPWR mux_right_track_8.mux_l1_in_1_/S sky130_fd_sc_hd__dfxtp_1
XFILLER_0_69 VGND VPWR VPWR VGND sky130_ef_sc_hd__decap_12
XFILLER_9_78 VGND VGND VPWR VPWR sky130_fd_sc_hd__fill_2
X_48_ _48_/A VGND VGND VPWR VPWR chanx_right_out[0] sky130_fd_sc_hd__buf_2
XFILLER_18_54 VGND VPWR VPWR VGND sky130_ef_sc_hd__decap_12
XFILLER_11_221 VGND VGND VPWR VPWR sky130_fd_sc_hd__fill_2
XFILLER_29_53 VGND VGND VPWR VPWR sky130_fd_sc_hd__decap_3
XANTENNA_mem_top_track_0.sky130_fd_sc_hd__dfxtp_1_0__D ccff_head VGND VGND VPWR VPWR
+ sky130_fd_sc_hd__diode_2
XFILLER_15_55 VGND VGND VPWR VPWR sky130_fd_sc_hd__fill_1
XFILLER_31_157 VGND VGND VPWR VPWR sky130_fd_sc_hd__decap_8
XFILLER_31_98 VGND VGND VPWR VPWR sky130_fd_sc_hd__decap_3
XFILLER_16_110 VGND VGND VPWR VPWR sky130_fd_sc_hd__fill_1
XTAP_179 VGND VPWR sky130_fd_sc_hd__tapvpwrvgnd_1
XTAP_168 VGND VPWR sky130_fd_sc_hd__tapvpwrvgnd_1
XTAP_157 VGND VPWR sky130_fd_sc_hd__tapvpwrvgnd_1
XFILLER_22_157 VGND VGND VPWR VPWR sky130_fd_sc_hd__fill_2
XFILLER_22_102 VGND VGND VPWR VPWR sky130_fd_sc_hd__fill_2
XTAP_146 VGND VPWR sky130_fd_sc_hd__tapvpwrvgnd_1
XTAP_135 VGND VPWR sky130_fd_sc_hd__tapvpwrvgnd_1
XTAP_124 VGND VPWR sky130_fd_sc_hd__tapvpwrvgnd_1
XTAP_113 VGND VPWR sky130_fd_sc_hd__tapvpwrvgnd_1
XANTENNA_mux_right_track_6.mux_l1_in_1__A0 right_bottom_grid_pin_11_ VGND VGND VPWR
+ VPWR sky130_fd_sc_hd__diode_2
XTAP_102 VGND VPWR sky130_fd_sc_hd__tapvpwrvgnd_1
XFILLER_13_113 VGND VGND VPWR VPWR sky130_fd_sc_hd__decap_8
XFILLER_9_128 VGND VPWR VPWR VGND sky130_ef_sc_hd__decap_12
X_81_ chanx_right_in[14] VGND VGND VPWR VPWR chany_top_out[13] sky130_fd_sc_hd__buf_2
XFILLER_3_69 VGND VPWR VPWR VGND sky130_ef_sc_hd__decap_12
XFILLER_8_172 VGND VPWR VPWR VGND sky130_ef_sc_hd__decap_12
XFILLER_27_216 VGND VGND VPWR VPWR sky130_fd_sc_hd__fill_2
XFILLER_12_56 VGND VGND VPWR VPWR sky130_fd_sc_hd__fill_2
X_64_ _64_/A VGND VGND VPWR VPWR chanx_right_out[16] sky130_fd_sc_hd__buf_2
XFILLER_15_219 VGND VGND VPWR VPWR sky130_fd_sc_hd__decap_4
XFILLER_23_88 VGND VGND VPWR VPWR sky130_fd_sc_hd__decap_3
Xmem_right_track_26.sky130_fd_sc_hd__dfxtp_1_0_ prog_clk_0_FTB00/X mux_right_track_24.mux_l2_in_0_/S
+ VGND VGND VPWR VPWR mux_right_track_26.mux_l1_in_0_/S sky130_fd_sc_hd__dfxtp_1
XFILLER_2_112 VGND VPWR VPWR VGND sky130_ef_sc_hd__decap_12
XFILLER_2_101 VGND VGND VPWR VPWR sky130_fd_sc_hd__fill_2
XFILLER_0_15 VGND VPWR VPWR VGND sky130_ef_sc_hd__decap_12
XFILLER_3_3 VGND VPWR VPWR VGND sky130_ef_sc_hd__decap_12
X_47_ VGND VGND VPWR VPWR _47_/HI _47_/LO sky130_fd_sc_hd__conb_1
XFILLER_9_57 VGND VPWR VPWR VGND sky130_ef_sc_hd__decap_12
XFILLER_18_66 VGND VPWR VPWR VGND sky130_ef_sc_hd__decap_12
XFILLER_28_141 VGND VPWR VPWR VGND sky130_ef_sc_hd__decap_12
XFILLER_19_185 VGND VGND VPWR VPWR sky130_fd_sc_hd__fill_2
XFILLER_31_33 VGND VPWR VPWR VGND sky130_ef_sc_hd__decap_12
XFILLER_25_133 VGND VGND VPWR VPWR sky130_fd_sc_hd__fill_2
XFILLER_0_221 VGND VGND VPWR VPWR sky130_fd_sc_hd__fill_2
XFILLER_31_169 VGND VGND VPWR VPWR sky130_fd_sc_hd__decap_6
XTAP_169 VGND VPWR sky130_fd_sc_hd__tapvpwrvgnd_1
XTAP_158 VGND VPWR sky130_fd_sc_hd__tapvpwrvgnd_1
XTAP_147 VGND VPWR sky130_fd_sc_hd__tapvpwrvgnd_1
XTAP_136 VGND VPWR sky130_fd_sc_hd__tapvpwrvgnd_1
XFILLER_16_177 VGND VGND VPWR VPWR sky130_fd_sc_hd__fill_2
XTAP_125 VGND VPWR sky130_fd_sc_hd__tapvpwrvgnd_1
XTAP_114 VGND VPWR sky130_fd_sc_hd__tapvpwrvgnd_1
XTAP_103 VGND VPWR sky130_fd_sc_hd__tapvpwrvgnd_1
XFILLER_13_169 VGND VPWR VPWR VGND sky130_ef_sc_hd__decap_12
XFILLER_13_125 VGND VPWR VPWR VGND sky130_ef_sc_hd__decap_12
XANTENNA_mux_right_track_6.mux_l1_in_1__A1 right_bottom_grid_pin_7_ VGND VGND VPWR
+ VPWR sky130_fd_sc_hd__diode_2
X_80_ _80_/A VGND VGND VPWR VPWR chany_top_out[12] sky130_fd_sc_hd__buf_2
XANTENNA_mem_right_track_4.sky130_fd_sc_hd__dfxtp_1_0__CLK prog_clk_0_FTB00/X VGND
+ VGND VPWR VPWR sky130_fd_sc_hd__diode_2
XFILLER_3_15 VGND VPWR VPWR VGND sky130_ef_sc_hd__decap_12
XFILLER_8_184 VGND VPWR VPWR VGND sky130_ef_sc_hd__decap_12
XFILLER_10_139 VGND VGND VPWR VPWR sky130_fd_sc_hd__fill_1
XFILLER_10_106 VGND VPWR VPWR VGND sky130_ef_sc_hd__decap_12
XFILLER_5_143 VGND VGND VPWR VPWR sky130_fd_sc_hd__decap_8
X_63_ _63_/A VGND VGND VPWR VPWR chanx_right_out[15] sky130_fd_sc_hd__buf_2
Xprog_clk_0_FTB00 prog_clk_0_E_in VGND VGND VPWR VPWR prog_clk_0_FTB00/X sky130_fd_sc_hd__buf_8
XANTENNA_mux_right_track_14.mux_l1_in_0__A0 right_bottom_grid_pin_7_ VGND VGND VPWR
+ VPWR sky130_fd_sc_hd__diode_2
XFILLER_2_124 VGND VPWR VPWR VGND sky130_ef_sc_hd__decap_12
XFILLER_0_27 VGND VGND VPWR VPWR sky130_fd_sc_hd__fill_1
XFILLER_29_3 VGND VPWR VPWR VGND sky130_ef_sc_hd__decap_12
X_46_ VGND VGND VPWR VPWR _46_/HI _46_/LO sky130_fd_sc_hd__conb_1
XFILLER_18_78 VGND VGND VPWR VPWR sky130_fd_sc_hd__decap_6
Xmux_right_track_10.mux_l2_in_0_ _38_/HI mux_right_track_10.mux_l1_in_0_/X mux_right_track_10.mux_l2_in_0_/S
+ VGND VGND VPWR VPWR mux_right_track_10.mux_l2_in_0_/X sky130_fd_sc_hd__mux2_1
XFILLER_7_205 VGND VGND VPWR VPWR sky130_fd_sc_hd__decap_4
X_29_ VGND VGND VPWR VPWR _29_/HI _29_/LO sky130_fd_sc_hd__conb_1
XFILLER_1_81 VGND VPWR VPWR VGND sky130_ef_sc_hd__decap_12
XFILLER_28_197 VGND VGND VPWR VPWR sky130_fd_sc_hd__decap_6
XFILLER_28_153 VGND VGND VPWR VPWR sky130_fd_sc_hd__decap_3
XFILLER_6_15 VGND VPWR VPWR VGND sky130_ef_sc_hd__decap_12
XFILLER_19_197 VGND VGND VPWR VPWR sky130_fd_sc_hd__decap_4
XFILLER_19_131 VGND VGND VPWR VPWR sky130_fd_sc_hd__fill_2
XFILLER_31_45 VGND VGND VPWR VPWR sky130_fd_sc_hd__decap_8
XFILLER_25_167 VGND VGND VPWR VPWR sky130_fd_sc_hd__fill_1
XFILLER_15_79 VGND VGND VPWR VPWR sky130_fd_sc_hd__fill_2
XFILLER_15_68 VGND VGND VPWR VPWR sky130_fd_sc_hd__fill_2
XFILLER_15_57 VGND VGND VPWR VPWR sky130_fd_sc_hd__fill_2
XTAP_159 VGND VPWR sky130_fd_sc_hd__tapvpwrvgnd_1
XTAP_148 VGND VPWR sky130_fd_sc_hd__tapvpwrvgnd_1
XTAP_137 VGND VPWR sky130_fd_sc_hd__tapvpwrvgnd_1
XFILLER_16_189 VGND VGND VPWR VPWR sky130_fd_sc_hd__decap_3
XTAP_126 VGND VPWR sky130_fd_sc_hd__tapvpwrvgnd_1
XTAP_115 VGND VPWR sky130_fd_sc_hd__tapvpwrvgnd_1
XFILLER_11_3 VGND VPWR VPWR VGND sky130_ef_sc_hd__decap_12
XTAP_104 VGND VPWR sky130_fd_sc_hd__tapvpwrvgnd_1
XFILLER_30_192 VGND VGND VPWR VPWR sky130_fd_sc_hd__decap_4
XFILLER_30_170 VGND VGND VPWR VPWR sky130_fd_sc_hd__decap_6
XFILLER_21_181 VGND VPWR VPWR VGND sky130_ef_sc_hd__decap_12
XFILLER_13_137 VGND VGND VPWR VPWR sky130_fd_sc_hd__decap_8
XFILLER_3_27 VGND VPWR VPWR VGND sky130_ef_sc_hd__decap_12
XANTENNA_mem_right_track_28.sky130_fd_sc_hd__dfxtp_1_0__CLK prog_clk_0_FTB00/X VGND
+ VGND VPWR VPWR sky130_fd_sc_hd__diode_2
XANTENNA_mux_right_track_22.mux_l1_in_0__A0 right_bottom_grid_pin_15_ VGND VGND VPWR
+ VPWR sky130_fd_sc_hd__diode_2
XFILLER_10_118 VGND VGND VPWR VPWR sky130_fd_sc_hd__fill_2
XFILLER_8_141 VGND VGND VPWR VPWR sky130_fd_sc_hd__fill_2
XFILLER_5_111 VGND VGND VPWR VPWR sky130_fd_sc_hd__fill_1
XFILLER_32_221 VGND VGND VPWR VPWR sky130_fd_sc_hd__fill_2
X_62_ _62_/A VGND VGND VPWR VPWR chanx_right_out[14] sky130_fd_sc_hd__buf_2
XFILLER_23_68 VGND VGND VPWR VPWR sky130_fd_sc_hd__fill_2
XFILLER_23_57 VGND VGND VPWR VPWR sky130_fd_sc_hd__fill_2
XANTENNA_mux_right_track_14.mux_l1_in_0__A1 chany_top_in[6] VGND VGND VPWR VPWR sky130_fd_sc_hd__diode_2
XFILLER_2_136 VGND VGND VPWR VPWR sky130_fd_sc_hd__decap_4
XFILLER_14_221 VGND VGND VPWR VPWR sky130_fd_sc_hd__fill_2
XFILLER_9_15 VGND VPWR VPWR VGND sky130_ef_sc_hd__decap_12
X_45_ VGND VGND VPWR VPWR _45_/HI _45_/LO sky130_fd_sc_hd__conb_1
XFILLER_20_213 VGND VGND VPWR VPWR sky130_fd_sc_hd__fill_2
XFILLER_11_213 VGND VGND VPWR VPWR sky130_fd_sc_hd__fill_2
XFILLER_7_217 VGND VGND VPWR VPWR sky130_fd_sc_hd__fill_2
X_28_ VGND VGND VPWR VPWR _28_/HI _28_/LO sky130_fd_sc_hd__conb_1
XFILLER_1_93 VGND VPWR VPWR VGND sky130_ef_sc_hd__decap_12
XFILLER_28_176 VGND VPWR VPWR VGND sky130_ef_sc_hd__decap_12
XFILLER_28_132 VGND VGND VPWR VPWR sky130_fd_sc_hd__fill_2
XFILLER_20_69 VGND VPWR VPWR VGND sky130_ef_sc_hd__decap_12
XFILLER_4_209 VGND VPWR VPWR VGND sky130_ef_sc_hd__decap_12
XFILLER_6_27 VGND VGND VPWR VPWR sky130_fd_sc_hd__fill_1
XFILLER_31_57 VGND VGND VPWR VPWR sky130_fd_sc_hd__decap_8
XFILLER_25_113 VGND VGND VPWR VPWR sky130_fd_sc_hd__decap_4
Xmem_right_track_12.sky130_fd_sc_hd__dfxtp_1_1_ prog_clk_0_FTB00/X mux_right_track_12.mux_l1_in_0_/S
+ VGND VGND VPWR VPWR mux_right_track_12.mux_l2_in_0_/S sky130_fd_sc_hd__dfxtp_1
Xmux_top_track_0.sky130_fd_sc_hd__buf_4_0_ mux_top_track_0.mux_l2_in_0_/X VGND VGND
+ VPWR VPWR _68_/A sky130_fd_sc_hd__buf_4
XTAP_149 VGND VPWR sky130_fd_sc_hd__tapvpwrvgnd_1
XTAP_138 VGND VPWR sky130_fd_sc_hd__tapvpwrvgnd_1
XFILLER_16_157 VGND VGND VPWR VPWR sky130_fd_sc_hd__decap_4
Xmux_top_track_0.mux_l2_in_0_ _33_/HI mux_top_track_0.mux_l1_in_0_/X mux_top_track_0.mux_l2_in_0_/S
+ VGND VGND VPWR VPWR mux_top_track_0.mux_l2_in_0_/X sky130_fd_sc_hd__mux2_1
XTAP_127 VGND VPWR sky130_fd_sc_hd__tapvpwrvgnd_1
Xmux_right_track_10.mux_l1_in_0_ right_bottom_grid_pin_3_ chany_top_in[4] mux_right_track_10.mux_l1_in_0_/S
+ VGND VGND VPWR VPWR mux_right_track_10.mux_l1_in_0_/X sky130_fd_sc_hd__mux2_1
XTAP_116 VGND VPWR sky130_fd_sc_hd__tapvpwrvgnd_1
Xmux_right_track_8.mux_l2_in_0_ mux_right_track_8.mux_l1_in_1_/X mux_right_track_8.mux_l1_in_0_/X
+ mux_right_track_8.mux_l2_in_0_/S VGND VGND VPWR VPWR mux_right_track_8.mux_l2_in_0_/X
+ sky130_fd_sc_hd__mux2_1
XTAP_105 VGND VPWR sky130_fd_sc_hd__tapvpwrvgnd_1
XANTENNA_mux_right_track_30.mux_l1_in_0__A0 right_bottom_grid_pin_7_ VGND VGND VPWR
+ VPWR sky130_fd_sc_hd__diode_2
Xmux_right_track_22.mux_l2_in_0_ _45_/HI mux_right_track_22.mux_l1_in_0_/X mux_right_track_22.mux_l2_in_0_/S
+ VGND VGND VPWR VPWR mux_right_track_22.mux_l2_in_0_/X sky130_fd_sc_hd__mux2_1
XFILLER_7_81 VGND VGND VPWR VPWR sky130_fd_sc_hd__fill_1
XFILLER_26_46 VGND VGND VPWR VPWR sky130_fd_sc_hd__decap_4
XFILLER_21_193 VGND VGND VPWR VPWR sky130_fd_sc_hd__fill_1
XFILLER_3_39 VGND VPWR VPWR VGND sky130_ef_sc_hd__decap_12
XFILLER_8_131 VGND VGND VPWR VPWR sky130_fd_sc_hd__decap_8
XANTENNA_mux_right_track_22.mux_l1_in_0__A1 chany_top_in[10] VGND VGND VPWR VPWR sky130_fd_sc_hd__diode_2
XFILLER_12_15 VGND VPWR VPWR VGND sky130_ef_sc_hd__decap_12
Xmux_right_track_8.mux_l1_in_1_ _32_/HI right_bottom_grid_pin_17_ mux_right_track_8.mux_l1_in_1_/S
+ VGND VGND VPWR VPWR mux_right_track_8.mux_l1_in_1_/X sky130_fd_sc_hd__mux2_1
X_61_ _61_/A VGND VGND VPWR VPWR chanx_right_out[13] sky130_fd_sc_hd__buf_2
XFILLER_5_123 VGND VGND VPWR VPWR sky130_fd_sc_hd__decap_3
XFILLER_5_167 VGND VGND VPWR VPWR sky130_fd_sc_hd__fill_1
XFILLER_23_200 VGND VGND VPWR VPWR sky130_fd_sc_hd__decap_3
XFILLER_0_29 VGND VPWR VPWR VGND sky130_ef_sc_hd__decap_12
XFILLER_9_27 VGND VPWR VPWR VGND sky130_ef_sc_hd__decap_12
X_44_ VGND VGND VPWR VPWR _44_/HI _44_/LO sky130_fd_sc_hd__conb_1
XFILLER_1_181 VGND VPWR VPWR VGND sky130_ef_sc_hd__decap_12
XFILLER_1_3 VGND VPWR VPWR VGND sky130_ef_sc_hd__decap_12
X_27_ VGND VGND VPWR VPWR _27_/HI _27_/LO sky130_fd_sc_hd__conb_1
Xmux_right_track_10.sky130_fd_sc_hd__buf_4_0_ mux_right_track_10.mux_l2_in_0_/X VGND
+ VGND VPWR VPWR _53_/A sky130_fd_sc_hd__buf_4
XFILLER_29_68 VGND VGND VPWR VPWR sky130_fd_sc_hd__fill_2
XFILLER_29_57 VGND VGND VPWR VPWR sky130_fd_sc_hd__fill_2
XFILLER_28_188 VGND VGND VPWR VPWR sky130_fd_sc_hd__decap_8
XFILLER_20_15 VGND VPWR VPWR VGND sky130_ef_sc_hd__decap_12
XFILLER_25_169 VGND VPWR VPWR VGND sky130_ef_sc_hd__decap_12
XFILLER_15_15 VGND VPWR VPWR VGND sky130_ef_sc_hd__decap_12
Xmem_right_track_12.sky130_fd_sc_hd__dfxtp_1_0_ prog_clk_0_FTB00/X mux_right_track_10.mux_l2_in_0_/S
+ VGND VGND VPWR VPWR mux_right_track_12.mux_l1_in_0_/S sky130_fd_sc_hd__dfxtp_1
XANTENNA_mem_right_track_30.sky130_fd_sc_hd__dfxtp_1_0__CLK prog_clk_0_FTB00/X VGND
+ VGND VPWR VPWR sky130_fd_sc_hd__diode_2
XANTENNA_mux_right_track_30.mux_l1_in_0__A1 chany_top_in[14] VGND VGND VPWR VPWR sky130_fd_sc_hd__diode_2
XFILLER_22_106 VGND VGND VPWR VPWR sky130_fd_sc_hd__decap_8
XTAP_139 VGND VPWR sky130_fd_sc_hd__tapvpwrvgnd_1
XTAP_128 VGND VPWR sky130_fd_sc_hd__tapvpwrvgnd_1
XFILLER_15_191 VGND VPWR VPWR VGND sky130_ef_sc_hd__decap_12
XTAP_117 VGND VPWR sky130_fd_sc_hd__tapvpwrvgnd_1
XTAP_106 VGND VPWR sky130_fd_sc_hd__tapvpwrvgnd_1
XPHY_0 VGND VGND VPWR VPWR sky130_fd_sc_hd__decap_3
XFILLER_12_27 VGND VGND VPWR VPWR sky130_fd_sc_hd__fill_1
Xmux_right_track_8.mux_l1_in_0_ right_bottom_grid_pin_1_ chany_top_in[3] mux_right_track_8.mux_l1_in_1_/S
+ VGND VGND VPWR VPWR mux_right_track_8.mux_l1_in_0_/X sky130_fd_sc_hd__mux2_1
XFILLER_32_201 VGND VGND VPWR VPWR sky130_fd_sc_hd__fill_2
Xmem_right_track_18.sky130_fd_sc_hd__dfxtp_1_1_ prog_clk_0_FTB00/X mux_right_track_18.mux_l1_in_0_/S
+ VGND VGND VPWR VPWR mux_right_track_18.mux_l2_in_0_/S sky130_fd_sc_hd__dfxtp_1
Xmux_right_track_22.mux_l1_in_0_ right_bottom_grid_pin_15_ chany_top_in[10] mux_right_track_22.mux_l1_in_0_/S
+ VGND VGND VPWR VPWR mux_right_track_22.mux_l1_in_0_/X sky130_fd_sc_hd__mux2_1
XANTENNA_mem_right_track_22.sky130_fd_sc_hd__dfxtp_1_1__CLK prog_clk_0_FTB00/X VGND
+ VGND VPWR VPWR sky130_fd_sc_hd__diode_2
XANTENNA_mem_right_track_8.sky130_fd_sc_hd__dfxtp_1_0__CLK prog_clk_0_FTB00/X VGND
+ VGND VPWR VPWR sky130_fd_sc_hd__diode_2
Xmux_top_track_0.mux_l1_in_0_ chanx_right_in[1] top_left_grid_pin_1_ mux_top_track_0.mux_l1_in_0_/S
+ VGND VGND VPWR VPWR mux_top_track_0.mux_l1_in_0_/X sky130_fd_sc_hd__mux2_1
X_60_ _60_/A VGND VGND VPWR VPWR chanx_right_out[12] sky130_fd_sc_hd__buf_2
Xmux_right_track_34.mux_l2_in_0_ _27_/HI mux_right_track_34.mux_l1_in_0_/X mux_right_track_34.mux_l2_in_0_/S
+ VGND VGND VPWR VPWR mux_right_track_34.mux_l2_in_0_/X sky130_fd_sc_hd__mux2_1
XFILLER_23_15 VGND VPWR VPWR VGND sky130_ef_sc_hd__decap_12
XFILLER_4_83 VGND VGND VPWR VPWR sky130_fd_sc_hd__fill_1
XFILLER_4_94 VGND VGND VPWR VPWR sky130_fd_sc_hd__fill_2
XFILLER_13_81 VGND VGND VPWR VPWR sky130_fd_sc_hd__fill_2
XFILLER_13_70 VGND VGND VPWR VPWR sky130_fd_sc_hd__fill_2
XFILLER_2_105 VGND VGND VPWR VPWR sky130_fd_sc_hd__decap_4
XFILLER_9_39 VGND VPWR VPWR VGND sky130_ef_sc_hd__decap_12
Xmux_right_track_8.sky130_fd_sc_hd__buf_4_0_ mux_right_track_8.mux_l2_in_0_/X VGND
+ VGND VPWR VPWR _52_/A sky130_fd_sc_hd__buf_4
X_43_ VGND VGND VPWR VPWR _43_/HI _43_/LO sky130_fd_sc_hd__conb_1
XFILLER_1_193 VGND VPWR VPWR VGND sky130_ef_sc_hd__decap_12
XFILLER_18_15 VGND VPWR VPWR VGND sky130_ef_sc_hd__decap_12
XFILLER_27_3 VGND VPWR VPWR VGND sky130_ef_sc_hd__decap_12
XANTENNA_mem_right_track_0.sky130_fd_sc_hd__dfxtp_1_1__D mux_right_track_0.mux_l1_in_2_/S
+ VGND VGND VPWR VPWR sky130_fd_sc_hd__diode_2
X_26_ VGND VGND VPWR VPWR _26_/HI _26_/LO sky130_fd_sc_hd__conb_1
XFILLER_20_49 VGND VGND VPWR VPWR sky130_fd_sc_hd__decap_3
XFILLER_20_27 VGND VGND VPWR VPWR sky130_fd_sc_hd__fill_1
XFILLER_1_51 VGND VGND VPWR VPWR sky130_fd_sc_hd__decap_4
XFILLER_19_189 VGND VGND VPWR VPWR sky130_fd_sc_hd__decap_6
XFILLER_19_167 VGND VGND VPWR VPWR sky130_fd_sc_hd__fill_1
XFILLER_6_29 VGND VPWR VPWR VGND sky130_ef_sc_hd__decap_12
Xmux_right_track_32.sky130_fd_sc_hd__buf_4_0_ mux_right_track_32.mux_l2_in_0_/X VGND
+ VGND VPWR VPWR _64_/A sky130_fd_sc_hd__buf_4
XFILLER_25_137 VGND VPWR VPWR VGND sky130_ef_sc_hd__decap_12
XFILLER_15_27 VGND VPWR VPWR VGND sky130_ef_sc_hd__decap_12
XFILLER_31_129 VGND VGND VPWR VPWR sky130_fd_sc_hd__fill_2
XFILLER_31_107 VGND VGND VPWR VPWR sky130_fd_sc_hd__decap_4
XFILLER_31_15 VGND VPWR VPWR VGND sky130_ef_sc_hd__decap_12
XFILLER_16_104 VGND VGND VPWR VPWR sky130_fd_sc_hd__decap_6
XTAP_129 VGND VPWR sky130_fd_sc_hd__tapvpwrvgnd_1
XTAP_118 VGND VPWR sky130_fd_sc_hd__tapvpwrvgnd_1
XTAP_107 VGND VPWR sky130_fd_sc_hd__tapvpwrvgnd_1
XPHY_1 VGND VGND VPWR VPWR sky130_fd_sc_hd__decap_3
XFILLER_26_15 VGND VPWR VPWR VGND sky130_ef_sc_hd__decap_12
XFILLER_21_140 VGND VPWR VPWR VGND sky130_ef_sc_hd__decap_12
XFILLER_32_91 VGND VGND VPWR VPWR sky130_fd_sc_hd__decap_3
Xmux_right_track_26.sky130_fd_sc_hd__buf_4_0_ mux_right_track_26.mux_l2_in_0_/X VGND
+ VGND VPWR VPWR _61_/A sky130_fd_sc_hd__buf_4
XFILLER_16_70 VGND VPWR VPWR VGND sky130_ef_sc_hd__decap_12
XFILLER_12_184 VGND VGND VPWR VPWR sky130_fd_sc_hd__fill_2
XFILLER_12_173 VGND VGND VPWR VPWR sky130_fd_sc_hd__fill_2
XFILLER_26_221 VGND VGND VPWR VPWR sky130_fd_sc_hd__fill_2
Xmem_right_track_18.sky130_fd_sc_hd__dfxtp_1_0_ prog_clk_0_FTB00/X mux_right_track_16.mux_l2_in_0_/S
+ VGND VGND VPWR VPWR mux_right_track_18.mux_l1_in_0_/S sky130_fd_sc_hd__dfxtp_1
XFILLER_17_221 VGND VGND VPWR VPWR sky130_fd_sc_hd__fill_2
XFILLER_17_210 VGND VGND VPWR VPWR sky130_fd_sc_hd__fill_2
XFILLER_5_169 VGND VPWR VPWR VGND sky130_ef_sc_hd__decap_12
XFILLER_23_27 VGND VPWR VPWR VGND sky130_ef_sc_hd__decap_12
X_42_ VGND VGND VPWR VPWR _42_/HI _42_/LO sky130_fd_sc_hd__conb_1
Xmem_right_track_30.sky130_fd_sc_hd__dfxtp_1_1_ prog_clk_0_FTB00/X mux_right_track_30.mux_l1_in_0_/S
+ VGND VGND VPWR VPWR mux_right_track_30.mux_l2_in_0_/S sky130_fd_sc_hd__dfxtp_1
XFILLER_18_49 VGND VGND VPWR VPWR sky130_fd_sc_hd__fill_2
XFILLER_18_27 VGND VGND VPWR VPWR sky130_fd_sc_hd__fill_1
Xmux_right_track_34.mux_l1_in_0_ right_bottom_grid_pin_11_ chany_top_in[16] mux_right_track_34.mux_l1_in_0_/S
+ VGND VGND VPWR VPWR mux_right_track_34.mux_l1_in_0_/X sky130_fd_sc_hd__mux2_1
XFILLER_6_220 VGND VGND VPWR VPWR sky130_fd_sc_hd__decap_3
XFILLER_29_15 VGND VPWR VPWR VGND sky130_ef_sc_hd__decap_12
X_25_ VGND VGND VPWR VPWR _25_/HI _25_/LO sky130_fd_sc_hd__conb_1
XFILLER_19_113 VGND VGND VPWR VPWR sky130_fd_sc_hd__fill_2
XFILLER_10_83 VGND VGND VPWR VPWR sky130_fd_sc_hd__fill_1
XFILLER_19_135 VGND VPWR VPWR VGND sky130_ef_sc_hd__decap_12
XFILLER_19_81 VGND VPWR VPWR VGND sky130_ef_sc_hd__decap_12
XANTENNA_mux_right_track_24.mux_l1_in_1__A1 right_bottom_grid_pin_17_ VGND VGND VPWR
+ VPWR sky130_fd_sc_hd__diode_2
XFILLER_31_27 VGND VGND VPWR VPWR sky130_fd_sc_hd__fill_2
XFILLER_25_149 VGND VPWR VPWR VGND sky130_ef_sc_hd__decap_12
XFILLER_16_127 VGND VGND VPWR VPWR sky130_fd_sc_hd__fill_2
XFILLER_15_39 VGND VPWR VPWR VGND sky130_ef_sc_hd__decap_12
XFILLER_21_82 VGND VGND VPWR VPWR sky130_fd_sc_hd__decap_4
XTAP_119 VGND VPWR sky130_fd_sc_hd__tapvpwrvgnd_1
XTAP_108 VGND VPWR sky130_fd_sc_hd__tapvpwrvgnd_1
XANTENNA_mux_right_track_0.mux_l1_in_0__A0 right_bottom_grid_pin_1_ VGND VGND VPWR
+ VPWR sky130_fd_sc_hd__diode_2
XPHY_2 VGND VGND VPWR VPWR sky130_fd_sc_hd__decap_3
XFILLER_26_27 VGND VGND VPWR VPWR sky130_fd_sc_hd__fill_1
XFILLER_21_196 VGND VPWR VPWR VGND sky130_ef_sc_hd__decap_12
XFILLER_21_152 VGND VPWR VPWR VGND sky130_ef_sc_hd__decap_12
XFILLER_7_51 VGND VGND VPWR VPWR sky130_fd_sc_hd__decap_4
XFILLER_7_84 VGND VGND VPWR VPWR sky130_fd_sc_hd__decap_4
XFILLER_32_70 VGND VPWR VPWR VGND sky130_ef_sc_hd__decap_12
XFILLER_16_82 VGND VGND VPWR VPWR sky130_fd_sc_hd__fill_2
XFILLER_12_163 VGND VGND VPWR VPWR sky130_fd_sc_hd__fill_2
XFILLER_12_152 VGND VGND VPWR VPWR sky130_fd_sc_hd__fill_2
XFILLER_12_141 VGND VGND VPWR VPWR sky130_fd_sc_hd__fill_1
XFILLER_12_29 VGND VPWR VPWR VGND sky130_ef_sc_hd__decap_12
XFILLER_5_115 VGND VGND VPWR VPWR sky130_fd_sc_hd__decap_6
XFILLER_4_41 VGND VPWR VPWR VGND sky130_ef_sc_hd__decap_12
XFILLER_23_39 VGND VGND VPWR VPWR sky130_fd_sc_hd__decap_6
X_41_ VGND VGND VPWR VPWR _41_/HI _41_/LO sky130_fd_sc_hd__conb_1
XANTENNA_mem_right_track_2.sky130_fd_sc_hd__dfxtp_1_1__CLK prog_clk_0_FTB00/X VGND
+ VGND VPWR VPWR sky130_fd_sc_hd__diode_2
XFILLER_1_162 VGND VGND VPWR VPWR sky130_fd_sc_hd__fill_1
XFILLER_11_217 VGND VGND VPWR VPWR sky130_fd_sc_hd__fill_2
Xmem_right_track_30.sky130_fd_sc_hd__dfxtp_1_0_ prog_clk_0_FTB00/X mux_right_track_28.mux_l2_in_0_/S
+ VGND VGND VPWR VPWR mux_right_track_30.mux_l1_in_0_/S sky130_fd_sc_hd__dfxtp_1
X_24_ VGND VGND VPWR VPWR _24_/HI _24_/LO sky130_fd_sc_hd__conb_1
XFILLER_20_29 VGND VPWR VPWR VGND sky130_ef_sc_hd__decap_12
XFILLER_29_27 VGND VGND VPWR VPWR sky130_fd_sc_hd__decap_8
XFILLER_28_136 VGND VGND VPWR VPWR sky130_fd_sc_hd__decap_4
XFILLER_28_103 VGND VPWR VPWR VGND sky130_ef_sc_hd__decap_12
XFILLER_32_3 VGND VPWR VPWR VGND sky130_ef_sc_hd__decap_12
XFILLER_19_147 VGND VPWR VPWR VGND sky130_ef_sc_hd__decap_12
XFILLER_19_93 VGND VGND VPWR VPWR sky130_fd_sc_hd__decap_4
XFILLER_33_194 VGND VGND VPWR VPWR sky130_fd_sc_hd__fill_2
XFILLER_25_106 VGND VGND VPWR VPWR sky130_fd_sc_hd__decap_6
Xmem_right_track_36.sky130_fd_sc_hd__dfxtp_1_1_ prog_clk_0_FTB00/X mux_right_track_36.mux_l1_in_0_/S
+ VGND VGND VPWR VPWR mux_right_track_36.mux_l2_in_0_/S sky130_fd_sc_hd__dfxtp_1
XFILLER_24_194 VGND VGND VPWR VPWR sky130_fd_sc_hd__fill_2
XFILLER_16_139 VGND VGND VPWR VPWR sky130_fd_sc_hd__fill_1
XTAP_109 VGND VPWR sky130_fd_sc_hd__tapvpwrvgnd_1
XANTENNA_mux_right_track_0.mux_l1_in_0__A1 chany_top_in[19] VGND VGND VPWR VPWR sky130_fd_sc_hd__diode_2
XFILLER_30_120 VGND VGND VPWR VPWR sky130_fd_sc_hd__fill_2
XFILLER_13_109 VGND VGND VPWR VPWR sky130_fd_sc_hd__decap_3
XPHY_3 VGND VGND VPWR VPWR sky130_fd_sc_hd__decap_3
XFILLER_21_164 VGND VGND VPWR VPWR sky130_fd_sc_hd__decap_4