* NGSPICE file created from sb_0__2_.ext - technology: sky130A

* Black-box entry subcircuit for sky130_fd_sc_hd__tapvpwrvgnd_1 abstract view
.subckt sky130_fd_sc_hd__tapvpwrvgnd_1 VGND VPWR
.ends

* Black-box entry subcircuit for sky130_fd_sc_hd__diode_2 abstract view
.subckt sky130_fd_sc_hd__diode_2 DIODE VGND VNB VPB VPWR
.ends

* Black-box entry subcircuit for sky130_fd_sc_hd__dfxtp_1 abstract view
.subckt sky130_fd_sc_hd__dfxtp_1 CLK D VGND VNB VPB VPWR Q
.ends

* Black-box entry subcircuit for sky130_ef_sc_hd__decap_12 abstract view
.subckt sky130_ef_sc_hd__decap_12 VGND VPWR VPB VNB
.ends

* Black-box entry subcircuit for sky130_fd_sc_hd__fill_1 abstract view
.subckt sky130_fd_sc_hd__fill_1 VGND VNB VPB VPWR
.ends

* Black-box entry subcircuit for sky130_fd_sc_hd__fill_2 abstract view
.subckt sky130_fd_sc_hd__fill_2 VGND VNB VPB VPWR
.ends

* Black-box entry subcircuit for sky130_fd_sc_hd__clkbuf_1 abstract view
.subckt sky130_fd_sc_hd__clkbuf_1 A VGND VNB VPB VPWR X
.ends

* Black-box entry subcircuit for sky130_fd_sc_hd__decap_4 abstract view
.subckt sky130_fd_sc_hd__decap_4 VGND VNB VPB VPWR
.ends

* Black-box entry subcircuit for sky130_fd_sc_hd__decap_8 abstract view
.subckt sky130_fd_sc_hd__decap_8 VGND VNB VPB VPWR
.ends

* Black-box entry subcircuit for sky130_fd_sc_hd__decap_6 abstract view
.subckt sky130_fd_sc_hd__decap_6 VGND VNB VPB VPWR
.ends

* Black-box entry subcircuit for sky130_fd_sc_hd__decap_3 abstract view
.subckt sky130_fd_sc_hd__decap_3 VGND VNB VPB VPWR
.ends

* Black-box entry subcircuit for sky130_fd_sc_hd__buf_2 abstract view
.subckt sky130_fd_sc_hd__buf_2 A VGND VNB VPB VPWR X
.ends

* Black-box entry subcircuit for sky130_fd_sc_hd__mux2_1 abstract view
.subckt sky130_fd_sc_hd__mux2_1 A0 A1 S VGND VNB VPB VPWR X
.ends

* Black-box entry subcircuit for sky130_fd_sc_hd__conb_1 abstract view
.subckt sky130_fd_sc_hd__conb_1 VGND VNB VPB VPWR HI LO
.ends

* Black-box entry subcircuit for sky130_fd_sc_hd__buf_8 abstract view
.subckt sky130_fd_sc_hd__buf_8 A VGND VNB VPB VPWR X
.ends

* Black-box entry subcircuit for sky130_fd_sc_hd__clkbuf_2 abstract view
.subckt sky130_fd_sc_hd__clkbuf_2 A VGND VNB VPB VPWR X
.ends

* Black-box entry subcircuit for sky130_fd_sc_hd__dlymetal6s2s_1 abstract view
.subckt sky130_fd_sc_hd__dlymetal6s2s_1 A VGND VNB VPB VPWR X
.ends

.subckt sb_0__2_ SC_IN_TOP SC_OUT_BOT VGND VPWR bottom_left_grid_pin_1_ ccff_head
+ ccff_tail chanx_right_in[0] chanx_right_in[10] chanx_right_in[11] chanx_right_in[12]
+ chanx_right_in[13] chanx_right_in[14] chanx_right_in[15] chanx_right_in[16] chanx_right_in[17]
+ chanx_right_in[18] chanx_right_in[19] chanx_right_in[1] chanx_right_in[2] chanx_right_in[3]
+ chanx_right_in[4] chanx_right_in[5] chanx_right_in[6] chanx_right_in[7] chanx_right_in[8]
+ chanx_right_in[9] chanx_right_out[0] chanx_right_out[10] chanx_right_out[11] chanx_right_out[12]
+ chanx_right_out[13] chanx_right_out[14] chanx_right_out[15] chanx_right_out[16]
+ chanx_right_out[17] chanx_right_out[18] chanx_right_out[19] chanx_right_out[1] chanx_right_out[2]
+ chanx_right_out[3] chanx_right_out[4] chanx_right_out[5] chanx_right_out[6] chanx_right_out[7]
+ chanx_right_out[8] chanx_right_out[9] chany_bottom_in[0] chany_bottom_in[10] chany_bottom_in[11]
+ chany_bottom_in[12] chany_bottom_in[13] chany_bottom_in[14] chany_bottom_in[15]
+ chany_bottom_in[16] chany_bottom_in[17] chany_bottom_in[18] chany_bottom_in[19]
+ chany_bottom_in[1] chany_bottom_in[2] chany_bottom_in[3] chany_bottom_in[4] chany_bottom_in[5]
+ chany_bottom_in[6] chany_bottom_in[7] chany_bottom_in[8] chany_bottom_in[9] chany_bottom_out[0]
+ chany_bottom_out[10] chany_bottom_out[11] chany_bottom_out[12] chany_bottom_out[13]
+ chany_bottom_out[14] chany_bottom_out[15] chany_bottom_out[16] chany_bottom_out[17]
+ chany_bottom_out[18] chany_bottom_out[19] chany_bottom_out[1] chany_bottom_out[2]
+ chany_bottom_out[3] chany_bottom_out[4] chany_bottom_out[5] chany_bottom_out[6]
+ chany_bottom_out[7] chany_bottom_out[8] chany_bottom_out[9] prog_clk_0_E_in right_bottom_grid_pin_34_
+ right_bottom_grid_pin_35_ right_bottom_grid_pin_36_ right_bottom_grid_pin_37_ right_bottom_grid_pin_38_
+ right_bottom_grid_pin_39_ right_bottom_grid_pin_40_ right_bottom_grid_pin_41_ right_top_grid_pin_1_
XTAP_188 VGND VPWR sky130_fd_sc_hd__tapvpwrvgnd_1
XANTENNA_mem_right_track_0.sky130_fd_sc_hd__dfxtp_1_0__CLK prog_clk_0_FTB00/X VGND
+ VGND VPWR VPWR sky130_fd_sc_hd__diode_2
XTAP_177 VGND VPWR sky130_fd_sc_hd__tapvpwrvgnd_1
Xmem_right_track_2.sky130_fd_sc_hd__dfxtp_1_0_ prog_clk_0_FTB00/X mux_right_track_0.mux_l3_in_0_/S
+ VGND VGND VPWR VPWR mux_right_track_2.mux_l1_in_1_/S sky130_fd_sc_hd__dfxtp_1
Xmem_right_track_20.sky130_fd_sc_hd__dfxtp_1_1_ prog_clk_0_FTB00/X mux_right_track_20.mux_l1_in_0_/S
+ VGND VGND VPWR VPWR mux_right_track_20.mux_l2_in_0_/S sky130_fd_sc_hd__dfxtp_1
XFILLER_26_41 VGND VPWR VPWR VGND sky130_ef_sc_hd__decap_12
XFILLER_13_199 VGND VGND VPWR VPWR sky130_fd_sc_hd__fill_1
XFILLER_13_166 VGND VGND VPWR VPWR sky130_fd_sc_hd__fill_2
XFILLER_13_111 VGND VGND VPWR VPWR sky130_fd_sc_hd__fill_1
XFILLER_9_137 VGND VPWR VPWR VGND sky130_ef_sc_hd__decap_12
X_83_ _83_/A VGND VGND VPWR VPWR _83_/X sky130_fd_sc_hd__clkbuf_1
XFILLER_12_65 VGND VPWR VPWR VGND sky130_ef_sc_hd__decap_12
X_66_ _66_/A VGND VGND VPWR VPWR _66_/X sky130_fd_sc_hd__clkbuf_1
XFILLER_5_195 VGND VGND VPWR VPWR sky130_fd_sc_hd__decap_4
Xmux_right_track_36.sky130_fd_sc_hd__buf_4_0_ mux_right_track_36.mux_l2_in_0_/X VGND
+ VGND VPWR VPWR _67_/A sky130_fd_sc_hd__clkbuf_1
XFILLER_15_217 VGND VGND VPWR VPWR sky130_fd_sc_hd__fill_2
XFILLER_21_209 VGND VGND VPWR VPWR sky130_fd_sc_hd__fill_2
Xmem_right_track_8.sky130_fd_sc_hd__dfxtp_1_1_ prog_clk_0_FTB00/X mux_right_track_8.mux_l1_in_1_/S
+ VGND VGND VPWR VPWR mux_right_track_8.mux_l2_in_0_/S sky130_fd_sc_hd__dfxtp_1
XFILLER_9_55 VGND VGND VPWR VPWR sky130_fd_sc_hd__fill_1
XFILLER_0_57 VGND VGND VPWR VPWR sky130_fd_sc_hd__fill_2
XFILLER_2_121 VGND VGND VPWR VPWR sky130_fd_sc_hd__decap_8
XANTENNA_mem_right_track_6.sky130_fd_sc_hd__dfxtp_1_2__CLK prog_clk_0_FTB00/X VGND
+ VGND VPWR VPWR sky130_fd_sc_hd__diode_2
X_49_ _49_/A VGND VGND VPWR VPWR _49_/X sky130_fd_sc_hd__clkbuf_1
XFILLER_18_53 VGND VPWR VPWR VGND sky130_ef_sc_hd__decap_12
XFILLER_7_202 VGND VGND VPWR VPWR sky130_fd_sc_hd__fill_2
XFILLER_29_139 VGND VGND VPWR VPWR sky130_fd_sc_hd__decap_6
XFILLER_28_194 VGND VGND VPWR VPWR sky130_fd_sc_hd__fill_2
XFILLER_28_183 VGND VGND VPWR VPWR sky130_fd_sc_hd__fill_2
XFILLER_28_161 VGND VGND VPWR VPWR sky130_fd_sc_hd__fill_2
XFILLER_20_65 VGND VPWR VPWR VGND sky130_ef_sc_hd__decap_12
XANTENNA_input18_A chanx_right_in[4] VGND VGND VPWR VPWR sky130_fd_sc_hd__diode_2
XFILLER_13_3 VGND VPWR VPWR VGND sky130_ef_sc_hd__decap_12
XFILLER_1_208 VGND VGND VPWR VPWR sky130_fd_sc_hd__decap_3
Xoutput64 _67_/X VGND VGND VPWR VPWR chanx_right_out[18] sky130_fd_sc_hd__buf_2
XFILLER_31_145 VGND VGND VPWR VPWR sky130_fd_sc_hd__fill_1
Xmux_right_track_38.mux_l1_in_0_ input34/X input50/X mux_right_track_38.mux_l1_in_0_/S
+ VGND VGND VPWR VPWR mux_right_track_38.mux_l1_in_0_/X sky130_fd_sc_hd__mux2_1
XFILLER_16_197 VGND VGND VPWR VPWR sky130_fd_sc_hd__fill_1
Xoutput75 _69_/X VGND VGND VPWR VPWR chany_bottom_out[0] sky130_fd_sc_hd__buf_2
Xoutput86 _70_/X VGND VGND VPWR VPWR chany_bottom_out[1] sky130_fd_sc_hd__buf_2
Xoutput53 _48_/X VGND VGND VPWR VPWR SC_OUT_BOT sky130_fd_sc_hd__buf_2
XTAP_189 VGND VPWR sky130_fd_sc_hd__tapvpwrvgnd_1
XTAP_178 VGND VPWR sky130_fd_sc_hd__tapvpwrvgnd_1
XTAP_167 VGND VPWR sky130_fd_sc_hd__tapvpwrvgnd_1
XANTENNA_mem_right_track_24.sky130_fd_sc_hd__dfxtp_1_0__CLK prog_clk_0_FTB00/X VGND
+ VGND VPWR VPWR sky130_fd_sc_hd__diode_2
Xmem_right_track_20.sky130_fd_sc_hd__dfxtp_1_0_ prog_clk_0_FTB00/X mux_right_track_18.mux_l2_in_0_/S
+ VGND VGND VPWR VPWR mux_right_track_20.mux_l1_in_0_/S sky130_fd_sc_hd__dfxtp_1
XTAP_156 VGND VPWR sky130_fd_sc_hd__tapvpwrvgnd_1
XFILLER_22_189 VGND VGND VPWR VPWR sky130_fd_sc_hd__decap_3
XTAP_145 VGND VPWR sky130_fd_sc_hd__tapvpwrvgnd_1
XTAP_134 VGND VPWR sky130_fd_sc_hd__tapvpwrvgnd_1
XTAP_123 VGND VPWR sky130_fd_sc_hd__tapvpwrvgnd_1
XTAP_112 VGND VPWR sky130_fd_sc_hd__tapvpwrvgnd_1
XTAP_101 VGND VPWR sky130_fd_sc_hd__tapvpwrvgnd_1
XFILLER_26_53 VGND VPWR VPWR VGND sky130_ef_sc_hd__decap_12
XFILLER_9_149 VGND VPWR VPWR VGND sky130_ef_sc_hd__decap_12
XFILLER_9_105 VGND VGND VPWR VPWR sky130_fd_sc_hd__decap_6
XFILLER_3_57 VGND VPWR VPWR VGND sky130_ef_sc_hd__decap_12
XFILLER_27_215 VGND VGND VPWR VPWR sky130_fd_sc_hd__fill_2
X_82_ _82_/A VGND VGND VPWR VPWR _82_/X sky130_fd_sc_hd__clkbuf_1
XFILLER_33_207 VGND VGND VPWR VPWR sky130_fd_sc_hd__fill_2
XANTENNA_mem_right_track_38.sky130_fd_sc_hd__dfxtp_1_1__CLK prog_clk_0_FTB00/X VGND
+ VGND VPWR VPWR sky130_fd_sc_hd__diode_2
XFILLER_18_215 VGND VGND VPWR VPWR sky130_fd_sc_hd__fill_2
XFILLER_12_77 VGND VGND VPWR VPWR sky130_fd_sc_hd__decap_6
X_65_ _65_/A VGND VGND VPWR VPWR _65_/X sky130_fd_sc_hd__clkbuf_1
XANTENNA_mem_right_track_16.sky130_fd_sc_hd__dfxtp_1_1__CLK prog_clk_0_FTB00/X VGND
+ VGND VPWR VPWR sky130_fd_sc_hd__diode_2
XFILLER_15_207 VGND VGND VPWR VPWR sky130_fd_sc_hd__fill_2
Xmem_right_track_26.sky130_fd_sc_hd__dfxtp_1_1_ prog_clk_0_FTB00/X mux_right_track_26.mux_l1_in_0_/S
+ VGND VGND VPWR VPWR mux_right_track_26.mux_l2_in_0_/S sky130_fd_sc_hd__dfxtp_1
Xmem_right_track_8.sky130_fd_sc_hd__dfxtp_1_0_ prog_clk_0_FTB00/X mux_right_track_6.mux_l3_in_0_/S
+ VGND VGND VPWR VPWR mux_right_track_8.mux_l1_in_1_/S sky130_fd_sc_hd__dfxtp_1
XANTENNA_input48_A right_bottom_grid_pin_38_ VGND VGND VPWR VPWR sky130_fd_sc_hd__diode_2
XFILLER_2_133 VGND VGND VPWR VPWR sky130_fd_sc_hd__fill_2
XFILLER_2_166 VGND VGND VPWR VPWR sky130_fd_sc_hd__fill_2
XFILLER_2_177 VGND VGND VPWR VPWR sky130_fd_sc_hd__fill_2
XFILLER_2_188 VGND VGND VPWR VPWR sky130_fd_sc_hd__fill_2
XFILLER_20_221 VGND VGND VPWR VPWR sky130_fd_sc_hd__fill_2
X_48_ _48_/A VGND VGND VPWR VPWR _48_/X sky130_fd_sc_hd__clkbuf_1
XFILLER_18_65 VGND VPWR VPWR VGND sky130_ef_sc_hd__decap_12
XFILLER_11_221 VGND VGND VPWR VPWR sky130_fd_sc_hd__fill_2
Xmem_bottom_track_25.sky130_fd_sc_hd__dfxtp_1_1_ prog_clk_0_FTB00/X mux_bottom_track_25.mux_l1_in_0_/S
+ VGND VGND VPWR VPWR output54/A sky130_fd_sc_hd__dfxtp_1
XFILLER_20_77 VGND VGND VPWR VPWR sky130_fd_sc_hd__decap_6
XFILLER_4_206 VGND VGND VPWR VPWR sky130_fd_sc_hd__fill_2
XFILLER_4_217 VGND VGND VPWR VPWR sky130_fd_sc_hd__fill_2
XFILLER_19_162 VGND VGND VPWR VPWR sky130_fd_sc_hd__decap_6
XFILLER_15_55 VGND VGND VPWR VPWR sky130_fd_sc_hd__fill_1
Xoutput65 _68_/X VGND VGND VPWR VPWR chanx_right_out[19] sky130_fd_sc_hd__buf_2
Xoutput54 output54/A VGND VGND VPWR VPWR ccff_tail sky130_fd_sc_hd__buf_2
XFILLER_16_187 VGND VGND VPWR VPWR sky130_fd_sc_hd__decap_4
XFILLER_16_121 VGND VPWR VPWR VGND sky130_ef_sc_hd__decap_12
XANTENNA_input30_A chany_bottom_in[15] VGND VGND VPWR VPWR sky130_fd_sc_hd__diode_2
Xoutput87 _71_/X VGND VGND VPWR VPWR chany_bottom_out[2] sky130_fd_sc_hd__buf_2
Xoutput76 _79_/X VGND VGND VPWR VPWR chany_bottom_out[10] sky130_fd_sc_hd__buf_2
XTAP_179 VGND VPWR sky130_fd_sc_hd__tapvpwrvgnd_1
XTAP_168 VGND VPWR sky130_fd_sc_hd__tapvpwrvgnd_1
XTAP_157 VGND VPWR sky130_fd_sc_hd__tapvpwrvgnd_1
XFILLER_22_179 VGND VGND VPWR VPWR sky130_fd_sc_hd__fill_2
XTAP_146 VGND VPWR sky130_fd_sc_hd__tapvpwrvgnd_1
XTAP_135 VGND VPWR sky130_fd_sc_hd__tapvpwrvgnd_1
XTAP_124 VGND VPWR sky130_fd_sc_hd__tapvpwrvgnd_1
XTAP_113 VGND VPWR sky130_fd_sc_hd__tapvpwrvgnd_1
XTAP_102 VGND VPWR sky130_fd_sc_hd__tapvpwrvgnd_1
XFILLER_26_98 VGND VGND VPWR VPWR sky130_fd_sc_hd__decap_4
XFILLER_26_65 VGND VPWR VPWR VGND sky130_ef_sc_hd__decap_12
XFILLER_13_179 VGND VGND VPWR VPWR sky130_fd_sc_hd__fill_2
XFILLER_13_113 VGND VGND VPWR VPWR sky130_fd_sc_hd__decap_6
XFILLER_8_194 VGND VGND VPWR VPWR sky130_fd_sc_hd__fill_2
XFILLER_8_172 VGND VGND VPWR VPWR sky130_fd_sc_hd__fill_2
XFILLER_3_69 VGND VPWR VPWR VGND sky130_ef_sc_hd__decap_12
X_81_ _81_/A VGND VGND VPWR VPWR _81_/X sky130_fd_sc_hd__clkbuf_1
XFILLER_6_109 VGND VPWR VPWR VGND sky130_ef_sc_hd__decap_12
X_64_ _64_/A VGND VGND VPWR VPWR _64_/X sky130_fd_sc_hd__clkbuf_1
Xmem_right_track_26.sky130_fd_sc_hd__dfxtp_1_0_ prog_clk_0_FTB00/X mux_right_track_24.mux_l2_in_0_/S
+ VGND VGND VPWR VPWR mux_right_track_26.mux_l1_in_0_/S sky130_fd_sc_hd__dfxtp_1
XFILLER_23_55 VGND VGND VPWR VPWR sky130_fd_sc_hd__fill_1
Xmux_right_track_18.mux_l2_in_0__117 VGND VGND VPWR VPWR mux_right_track_18.mux_l2_in_0_/A0
+ mux_right_track_18.mux_l2_in_0__117/LO sky130_fd_sc_hd__conb_1
XFILLER_0_26 VGND VGND VPWR VPWR sky130_fd_sc_hd__fill_2
XFILLER_0_15 VGND VGND VPWR VPWR sky130_fd_sc_hd__decap_3
XFILLER_3_3 VGND VPWR VPWR VGND sky130_ef_sc_hd__decap_12
XFILLER_9_57 VGND VPWR VPWR VGND sky130_ef_sc_hd__decap_12
XFILLER_18_77 VGND VGND VPWR VPWR sky130_fd_sc_hd__decap_6
XFILLER_11_211 VGND VGND VPWR VPWR sky130_fd_sc_hd__fill_2
XFILLER_11_200 VGND VGND VPWR VPWR sky130_fd_sc_hd__fill_2
Xmem_bottom_track_25.sky130_fd_sc_hd__dfxtp_1_0_ prog_clk_0_FTB00/X mux_bottom_track_9.mux_l2_in_0_/S
+ VGND VGND VPWR VPWR mux_bottom_track_25.mux_l1_in_0_/S sky130_fd_sc_hd__dfxtp_1
XFILLER_1_80 VGND VGND VPWR VPWR sky130_fd_sc_hd__fill_2
XFILLER_28_141 VGND VGND VPWR VPWR sky130_fd_sc_hd__decap_8
XFILLER_19_141 VGND VGND VPWR VPWR sky130_fd_sc_hd__decap_6
XFILLER_31_88 VGND VGND VPWR VPWR sky130_fd_sc_hd__decap_6
XFILLER_31_77 VGND VGND VPWR VPWR sky130_fd_sc_hd__fill_2
XFILLER_31_66 VGND VGND VPWR VPWR sky130_fd_sc_hd__fill_2
XFILLER_31_55 VGND VGND VPWR VPWR sky130_fd_sc_hd__fill_1
XFILLER_25_133 VGND VGND VPWR VPWR sky130_fd_sc_hd__decap_3
XFILLER_25_111 VGND VGND VPWR VPWR sky130_fd_sc_hd__fill_1
Xoutput66 _50_/X VGND VGND VPWR VPWR chanx_right_out[1] sky130_fd_sc_hd__buf_2
Xoutput55 _49_/X VGND VGND VPWR VPWR chanx_right_out[0] sky130_fd_sc_hd__buf_2
XFILLER_16_133 VGND VGND VPWR VPWR sky130_fd_sc_hd__decap_6
XANTENNA_input23_A chanx_right_in[9] VGND VGND VPWR VPWR sky130_fd_sc_hd__diode_2
Xoutput88 _72_/X VGND VGND VPWR VPWR chany_bottom_out[3] sky130_fd_sc_hd__buf_2
Xoutput77 _80_/X VGND VGND VPWR VPWR chany_bottom_out[11] sky130_fd_sc_hd__buf_2
XFILLER_0_221 VGND VGND VPWR VPWR sky130_fd_sc_hd__fill_2
XTAP_169 VGND VPWR sky130_fd_sc_hd__tapvpwrvgnd_1
XTAP_158 VGND VPWR sky130_fd_sc_hd__tapvpwrvgnd_1
XFILLER_22_103 VGND VGND VPWR VPWR sky130_fd_sc_hd__fill_1
XTAP_147 VGND VPWR sky130_fd_sc_hd__tapvpwrvgnd_1
XTAP_136 VGND VPWR sky130_fd_sc_hd__tapvpwrvgnd_1
XFILLER_16_177 VGND VGND VPWR VPWR sky130_fd_sc_hd__fill_2
XTAP_125 VGND VPWR sky130_fd_sc_hd__tapvpwrvgnd_1
XTAP_114 VGND VPWR sky130_fd_sc_hd__tapvpwrvgnd_1
XTAP_103 VGND VPWR sky130_fd_sc_hd__tapvpwrvgnd_1
XFILLER_26_77 VGND VGND VPWR VPWR sky130_fd_sc_hd__decap_3
XFILLER_13_169 VGND VGND VPWR VPWR sky130_fd_sc_hd__decap_4
XFILLER_13_158 VGND VGND VPWR VPWR sky130_fd_sc_hd__decap_8
XANTENNA_mem_right_track_4.sky130_fd_sc_hd__dfxtp_1_0__CLK prog_clk_0_FTB00/X VGND
+ VGND VPWR VPWR sky130_fd_sc_hd__diode_2
XFILLER_3_15 VGND VPWR VPWR VGND sky130_ef_sc_hd__decap_12
X_80_ _80_/A VGND VGND VPWR VPWR _80_/X sky130_fd_sc_hd__clkbuf_1
XFILLER_10_139 VGND VGND VPWR VPWR sky130_fd_sc_hd__fill_1
XFILLER_18_206 VGND VGND VPWR VPWR sky130_fd_sc_hd__fill_2
X_63_ _63_/A VGND VGND VPWR VPWR _63_/X sky130_fd_sc_hd__clkbuf_1
XANTENNA_output54_A output54/A VGND VGND VPWR VPWR sky130_fd_sc_hd__diode_2
Xprog_clk_0_FTB00 prog_clk_0_E_in VGND VGND VPWR VPWR prog_clk_0_FTB00/X sky130_fd_sc_hd__buf_8
XFILLER_0_49 VGND VGND VPWR VPWR sky130_fd_sc_hd__fill_2
XFILLER_2_157 VGND VGND VPWR VPWR sky130_fd_sc_hd__fill_2
XFILLER_29_3 VGND VPWR VPWR VGND sky130_ef_sc_hd__decap_12
XFILLER_9_69 VGND VPWR VPWR VGND sky130_ef_sc_hd__decap_12
XFILLER_1_190 VGND VGND VPWR VPWR sky130_fd_sc_hd__fill_2
Xmux_right_track_10.mux_l2_in_0_ mux_right_track_10.mux_l2_in_0_/A0 mux_right_track_10.mux_l1_in_0_/X
+ mux_right_track_10.mux_l2_in_0_/S VGND VGND VPWR VPWR mux_right_track_10.mux_l2_in_0_/X
+ sky130_fd_sc_hd__mux2_1
XFILLER_29_55 VGND VGND VPWR VPWR sky130_fd_sc_hd__fill_1
XFILLER_28_153 VGND VGND VPWR VPWR sky130_fd_sc_hd__fill_2
XFILLER_6_15 VGND VPWR VPWR VGND sky130_ef_sc_hd__decap_12
Xoutput56 _59_/X VGND VGND VPWR VPWR chanx_right_out[10] sky130_fd_sc_hd__buf_2
XFILLER_25_189 VGND VGND VPWR VPWR sky130_fd_sc_hd__decap_4
XFILLER_25_167 VGND VGND VPWR VPWR sky130_fd_sc_hd__fill_1
Xoutput67 _51_/X VGND VGND VPWR VPWR chanx_right_out[2] sky130_fd_sc_hd__buf_2
XFILLER_15_57 VGND VPWR VPWR VGND sky130_ef_sc_hd__decap_12
Xoutput89 _73_/X VGND VGND VPWR VPWR chany_bottom_out[4] sky130_fd_sc_hd__buf_2
Xoutput78 _81_/X VGND VGND VPWR VPWR chany_bottom_out[12] sky130_fd_sc_hd__buf_2
Xmux_right_track_34.mux_l2_in_0__102 VGND VGND VPWR VPWR mux_right_track_34.mux_l2_in_0_/A0
+ mux_right_track_34.mux_l2_in_0__102/LO sky130_fd_sc_hd__conb_1
XFILLER_31_148 VGND VGND VPWR VPWR sky130_fd_sc_hd__fill_2
XFILLER_31_137 VGND VGND VPWR VPWR sky130_fd_sc_hd__fill_2
XFILLER_31_115 VGND VGND VPWR VPWR sky130_fd_sc_hd__decap_6
XTAP_159 VGND VPWR sky130_fd_sc_hd__tapvpwrvgnd_1
XTAP_148 VGND VPWR sky130_fd_sc_hd__tapvpwrvgnd_1
XTAP_137 VGND VPWR sky130_fd_sc_hd__tapvpwrvgnd_1
XFILLER_16_167 VGND VGND VPWR VPWR sky130_fd_sc_hd__fill_2
XTAP_126 VGND VPWR sky130_fd_sc_hd__tapvpwrvgnd_1
XTAP_115 VGND VPWR sky130_fd_sc_hd__tapvpwrvgnd_1
XFILLER_11_3 VGND VPWR VPWR VGND sky130_ef_sc_hd__decap_12
XTAP_104 VGND VPWR sky130_fd_sc_hd__tapvpwrvgnd_1
XANTENNA_input16_A chanx_right_in[2] VGND VGND VPWR VPWR sky130_fd_sc_hd__diode_2
XFILLER_30_181 VGND VGND VPWR VPWR sky130_fd_sc_hd__fill_2
XANTENNA_input8_A chanx_right_in[13] VGND VGND VPWR VPWR sky130_fd_sc_hd__diode_2
XFILLER_3_27 VGND VPWR VPWR VGND sky130_ef_sc_hd__decap_12
XANTENNA_mem_right_track_28.sky130_fd_sc_hd__dfxtp_1_0__CLK prog_clk_0_FTB00/X VGND
+ VGND VPWR VPWR sky130_fd_sc_hd__diode_2
XANTENNA_mux_right_track_22.mux_l1_in_0__A0 input41/X VGND VGND VPWR VPWR sky130_fd_sc_hd__diode_2
XFILLER_8_141 VGND VPWR VPWR VGND sky130_ef_sc_hd__decap_12
XFILLER_5_111 VGND VGND VPWR VPWR sky130_fd_sc_hd__fill_1
XFILLER_5_155 VGND VGND VPWR VPWR sky130_fd_sc_hd__fill_2
XFILLER_32_221 VGND VGND VPWR VPWR sky130_fd_sc_hd__fill_2
X_62_ _62_/A VGND VGND VPWR VPWR _62_/X sky130_fd_sc_hd__clkbuf_1
XFILLER_5_166 VGND VGND VPWR VPWR sky130_fd_sc_hd__fill_2
Xmem_bottom_track_9.sky130_fd_sc_hd__dfxtp_1_1_ prog_clk_0_FTB00/X mux_bottom_track_9.mux_l1_in_0_/S
+ VGND VGND VPWR VPWR mux_bottom_track_9.mux_l2_in_0_/S sky130_fd_sc_hd__dfxtp_1
XFILLER_23_221 VGND VGND VPWR VPWR sky130_fd_sc_hd__fill_2
XFILLER_23_57 VGND VPWR VPWR VGND sky130_ef_sc_hd__decap_12
XFILLER_2_147 VGND VGND VPWR VPWR sky130_fd_sc_hd__fill_2
XFILLER_4_70 VGND VPWR VPWR VGND sky130_ef_sc_hd__decap_12
Xmux_right_track_2.mux_l2_in_1__118 VGND VGND VPWR VPWR mux_right_track_2.mux_l2_in_1_/A0
+ mux_right_track_2.mux_l2_in_1__118/LO sky130_fd_sc_hd__conb_1
XFILLER_9_15 VGND VPWR VPWR VGND sky130_ef_sc_hd__decap_12
XFILLER_0_39 VGND VGND VPWR VPWR sky130_fd_sc_hd__fill_2
XANTENNA_input46_A right_bottom_grid_pin_36_ VGND VGND VPWR VPWR sky130_fd_sc_hd__diode_2
XFILLER_1_93 VGND VGND VPWR VPWR sky130_fd_sc_hd__fill_2
XFILLER_28_187 VGND VGND VPWR VPWR sky130_fd_sc_hd__decap_4
XFILLER_28_165 VGND VGND VPWR VPWR sky130_fd_sc_hd__fill_2
XFILLER_28_132 VGND VGND VPWR VPWR sky130_fd_sc_hd__fill_2
XFILLER_19_187 VGND VGND VPWR VPWR sky130_fd_sc_hd__decap_4
XFILLER_6_27 VGND VGND VPWR VPWR sky130_fd_sc_hd__fill_1
XFILLER_31_57 VGND VGND VPWR VPWR sky130_fd_sc_hd__decap_6
Xoutput57 _60_/X VGND VGND VPWR VPWR chanx_right_out[11] sky130_fd_sc_hd__buf_2
Xmem_right_track_12.sky130_fd_sc_hd__dfxtp_1_1_ prog_clk_0_FTB00/X mux_right_track_12.mux_l1_in_0_/S
+ VGND VGND VPWR VPWR mux_right_track_12.mux_l2_in_0_/S sky130_fd_sc_hd__dfxtp_1
XFILLER_15_69 VGND VPWR VPWR VGND sky130_ef_sc_hd__decap_12
XTAP_149 VGND VPWR sky130_fd_sc_hd__tapvpwrvgnd_1
Xoutput68 _52_/X VGND VGND VPWR VPWR chanx_right_out[3] sky130_fd_sc_hd__buf_2
XTAP_138 VGND VPWR sky130_fd_sc_hd__tapvpwrvgnd_1
XFILLER_16_157 VGND VGND VPWR VPWR sky130_fd_sc_hd__decap_4
XTAP_127 VGND VPWR sky130_fd_sc_hd__tapvpwrvgnd_1
Xmux_right_track_8.mux_l2_in_0_ mux_right_track_8.mux_l1_in_1_/X mux_right_track_8.mux_l1_in_0_/X
+ mux_right_track_8.mux_l2_in_0_/S VGND VGND VPWR VPWR mux_right_track_8.mux_l2_in_0_/X
+ sky130_fd_sc_hd__mux2_1
XTAP_116 VGND VPWR sky130_fd_sc_hd__tapvpwrvgnd_1
XTAP_105 VGND VPWR sky130_fd_sc_hd__tapvpwrvgnd_1
Xoutput79 _82_/X VGND VGND VPWR VPWR chany_bottom_out[13] sky130_fd_sc_hd__buf_2
Xmux_right_track_10.mux_l1_in_0_ input28/X input44/X mux_right_track_10.mux_l1_in_0_/S
+ VGND VGND VPWR VPWR mux_right_track_10.mux_l1_in_0_/X sky130_fd_sc_hd__mux2_1
XFILLER_22_138 VGND VGND VPWR VPWR sky130_fd_sc_hd__fill_2
Xmux_right_track_22.mux_l2_in_0_ mux_right_track_22.mux_l2_in_0_/A0 mux_right_track_22.mux_l1_in_0_/X
+ mux_right_track_22.mux_l2_in_0_/S VGND VGND VPWR VPWR mux_right_track_22.mux_l2_in_0_/X
+ sky130_fd_sc_hd__mux2_1
XFILLER_7_81 VGND VPWR VPWR VGND sky130_ef_sc_hd__decap_12
XFILLER_13_105 VGND VGND VPWR VPWR sky130_fd_sc_hd__decap_6
XFILLER_3_39 VGND VPWR VPWR VGND sky130_ef_sc_hd__decap_12
XFILLER_8_153 VGND VPWR VPWR VGND sky130_ef_sc_hd__decap_12
Xmux_right_track_8.mux_l1_in_1_ mux_right_track_8.mux_l1_in_1_/A0 input29/X mux_right_track_8.mux_l1_in_1_/S
+ VGND VGND VPWR VPWR mux_right_track_8.mux_l1_in_1_/X sky130_fd_sc_hd__mux2_1
XFILLER_12_15 VGND VPWR VPWR VGND sky130_ef_sc_hd__decap_12
X_61_ _61_/A VGND VGND VPWR VPWR _61_/X sky130_fd_sc_hd__clkbuf_1
XFILLER_5_178 VGND VGND VPWR VPWR sky130_fd_sc_hd__fill_2
XFILLER_23_69 VGND VPWR VPWR VGND sky130_ef_sc_hd__decap_12
XFILLER_4_82 VGND VGND VPWR VPWR sky130_fd_sc_hd__fill_2
Xmem_bottom_track_9.sky130_fd_sc_hd__dfxtp_1_0_ prog_clk_0_FTB00/X mux_bottom_track_5.mux_l2_in_0_/S
+ VGND VGND VPWR VPWR mux_bottom_track_9.mux_l1_in_0_/S sky130_fd_sc_hd__dfxtp_1
XFILLER_14_222 VGND VGND VPWR VPWR sky130_fd_sc_hd__fill_1
XFILLER_9_27 VGND VPWR VPWR VGND sky130_ef_sc_hd__decap_12
Xmux_right_track_0.mux_l2_in_1__112 VGND VGND VPWR VPWR mux_right_track_0.mux_l2_in_1_/A0
+ mux_right_track_0.mux_l2_in_1__112/LO sky130_fd_sc_hd__conb_1
XFILLER_0_29 VGND VGND VPWR VPWR sky130_fd_sc_hd__fill_2
XFILLER_20_203 VGND VGND VPWR VPWR sky130_fd_sc_hd__fill_2
XFILLER_7_218 VGND VGND VPWR VPWR sky130_fd_sc_hd__decap_4
XFILLER_7_207 VGND VGND VPWR VPWR sky130_fd_sc_hd__fill_2
XANTENNA_input39_A chany_bottom_in[5] VGND VGND VPWR VPWR sky130_fd_sc_hd__diode_2
XFILLER_1_3 VGND VGND VPWR VPWR sky130_fd_sc_hd__decap_8
Xmux_right_track_10.sky130_fd_sc_hd__buf_4_0_ mux_right_track_10.mux_l2_in_0_/X VGND
+ VGND VPWR VPWR _54_/A sky130_fd_sc_hd__clkbuf_1
XFILLER_1_72 VGND VGND VPWR VPWR sky130_fd_sc_hd__fill_2
XFILLER_29_57 VGND VPWR VPWR VGND sky130_ef_sc_hd__decap_12
XFILLER_20_15 VGND VPWR VPWR VGND sky130_ef_sc_hd__decap_12
XFILLER_19_111 VGND VGND VPWR VPWR sky130_fd_sc_hd__fill_1
XFILLER_3_221 VGND VGND VPWR VPWR sky130_fd_sc_hd__fill_2
Xmem_right_track_12.sky130_fd_sc_hd__dfxtp_1_0_ prog_clk_0_FTB00/X mux_right_track_10.mux_l2_in_0_/S
+ VGND VGND VPWR VPWR mux_right_track_12.mux_l1_in_0_/S sky130_fd_sc_hd__dfxtp_1
XFILLER_25_158 VGND VGND VPWR VPWR sky130_fd_sc_hd__fill_1
XANTENNA_mem_bottom_track_25.sky130_fd_sc_hd__dfxtp_1_1__CLK prog_clk_0_FTB00/X VGND
+ VGND VPWR VPWR sky130_fd_sc_hd__diode_2
XFILLER_15_15 VGND VPWR VPWR VGND sky130_ef_sc_hd__decap_12
Xoutput58 _61_/X VGND VGND VPWR VPWR chanx_right_out[12] sky130_fd_sc_hd__buf_2
Xoutput69 _53_/X VGND VGND VPWR VPWR chanx_right_out[4] sky130_fd_sc_hd__buf_2
XFILLER_24_191 VGND VGND VPWR VPWR sky130_fd_sc_hd__fill_1
XFILLER_30_194 VGND VGND VPWR VPWR sky130_fd_sc_hd__fill_2
XANTENNA_mem_right_track_30.sky130_fd_sc_hd__dfxtp_1_0__CLK prog_clk_0_FTB00/X VGND
+ VGND VPWR VPWR sky130_fd_sc_hd__diode_2
XTAP_139 VGND VPWR sky130_fd_sc_hd__tapvpwrvgnd_1
XTAP_128 VGND VPWR sky130_fd_sc_hd__tapvpwrvgnd_1
XFILLER_15_191 VGND VGND VPWR VPWR sky130_fd_sc_hd__fill_2
XTAP_117 VGND VPWR sky130_fd_sc_hd__tapvpwrvgnd_1
XTAP_106 VGND VPWR sky130_fd_sc_hd__tapvpwrvgnd_1
XPHY_0 VGND VGND VPWR VPWR sky130_fd_sc_hd__decap_3
XFILLER_7_93 VGND VPWR VPWR VGND sky130_ef_sc_hd__decap_12
XFILLER_21_150 VGND VPWR VPWR VGND sky130_ef_sc_hd__decap_12
XANTENNA_mux_bottom_track_25.mux_l1_in_0__A0 input2/X VGND VGND VPWR VPWR sky130_fd_sc_hd__diode_2
XFILLER_12_194 VGND VGND VPWR VPWR sky130_fd_sc_hd__fill_2
XFILLER_8_165 VGND VGND VPWR VPWR sky130_fd_sc_hd__decap_4
XFILLER_8_121 VGND VPWR VPWR VGND sky130_ef_sc_hd__decap_12
XANTENNA_input21_A chanx_right_in[7] VGND VGND VPWR VPWR sky130_fd_sc_hd__diode_2
Xmux_right_track_8.mux_l1_in_0_ input51/X input52/X mux_right_track_8.mux_l1_in_1_/S
+ VGND VGND VPWR VPWR mux_right_track_8.mux_l1_in_0_/X sky130_fd_sc_hd__mux2_1
XFILLER_12_27 VGND VGND VPWR VPWR sky130_fd_sc_hd__fill_1
XFILLER_10_109 VGND VPWR VPWR VGND sky130_ef_sc_hd__decap_12
XANTENNA_mem_right_track_22.sky130_fd_sc_hd__dfxtp_1_1__CLK prog_clk_0_FTB00/X VGND
+ VGND VPWR VPWR sky130_fd_sc_hd__diode_2
XANTENNA_mem_right_track_8.sky130_fd_sc_hd__dfxtp_1_0__CLK prog_clk_0_FTB00/X VGND
+ VGND VPWR VPWR sky130_fd_sc_hd__diode_2
Xmem_right_track_18.sky130_fd_sc_hd__dfxtp_1_1_ prog_clk_0_FTB00/X mux_right_track_18.mux_l1_in_0_/S
+ VGND VGND VPWR VPWR mux_right_track_18.mux_l2_in_0_/S sky130_fd_sc_hd__dfxtp_1
Xmux_right_track_22.mux_l1_in_0_ input41/X input50/X mux_right_track_22.mux_l1_in_0_/S
+ VGND VGND VPWR VPWR mux_right_track_22.mux_l1_in_0_/X sky130_fd_sc_hd__mux2_1
X_60_ _60_/A VGND VGND VPWR VPWR _60_/X sky130_fd_sc_hd__clkbuf_1
XFILLER_5_113 VGND VPWR VPWR VGND sky130_ef_sc_hd__decap_12
Xmux_right_track_34.mux_l2_in_0_ mux_right_track_34.mux_l2_in_0_/A0 mux_right_track_34.mux_l1_in_0_/X
+ mux_right_track_34.mux_l2_in_0_/S VGND VGND VPWR VPWR mux_right_track_34.mux_l2_in_0_/X
+ sky130_fd_sc_hd__mux2_1
XFILLER_23_15 VGND VPWR VPWR VGND sky130_ef_sc_hd__decap_12
Xmux_right_track_8.sky130_fd_sc_hd__buf_4_0_ mux_right_track_8.mux_l2_in_0_/X VGND
+ VGND VPWR VPWR _53_/A sky130_fd_sc_hd__clkbuf_1
XFILLER_13_81 VGND VPWR VPWR VGND sky130_ef_sc_hd__decap_12
XFILLER_9_39 VGND VPWR VPWR VGND sky130_ef_sc_hd__decap_12
XFILLER_2_138 VGND VGND VPWR VPWR sky130_fd_sc_hd__fill_2
XFILLER_1_160 VGND VGND VPWR VPWR sky130_fd_sc_hd__fill_2
XFILLER_18_15 VGND VPWR VPWR VGND sky130_ef_sc_hd__decap_12
XFILLER_27_3 VGND VPWR VPWR VGND sky130_ef_sc_hd__decap_12
XFILLER_29_69 VGND VPWR VPWR VGND sky130_ef_sc_hd__decap_12
XFILLER_20_27 VGND VGND VPWR VPWR sky130_fd_sc_hd__fill_1
XFILLER_1_84 VGND VGND VPWR VPWR sky130_fd_sc_hd__fill_2
XFILLER_1_51 VGND VGND VPWR VPWR sky130_fd_sc_hd__decap_4
XANTENNA_input51_A right_bottom_grid_pin_41_ VGND VGND VPWR VPWR sky130_fd_sc_hd__diode_2
XFILLER_6_29 VGND VPWR VPWR VGND sky130_ef_sc_hd__decap_12
Xmux_right_track_32.sky130_fd_sc_hd__buf_4_0_ mux_right_track_32.mux_l2_in_0_/X VGND
+ VGND VPWR VPWR _65_/A sky130_fd_sc_hd__clkbuf_1
XFILLER_15_27 VGND VPWR VPWR VGND sky130_ef_sc_hd__decap_12
XFILLER_31_15 VGND VPWR VPWR VGND sky130_ef_sc_hd__decap_12
Xoutput59 _62_/X VGND VGND VPWR VPWR chanx_right_out[13] sky130_fd_sc_hd__buf_2
XTAP_129 VGND VPWR sky130_fd_sc_hd__tapvpwrvgnd_1
XFILLER_15_181 VGND VGND VPWR VPWR sky130_fd_sc_hd__fill_2
XTAP_118 VGND VPWR sky130_fd_sc_hd__tapvpwrvgnd_1
XTAP_107 VGND VPWR sky130_fd_sc_hd__tapvpwrvgnd_1
XPHY_1 VGND VGND VPWR VPWR sky130_fd_sc_hd__decap_3
XFILLER_26_15 VGND VPWR VPWR VGND sky130_ef_sc_hd__decap_12
XFILLER_13_129 VGND VPWR VPWR VGND sky130_ef_sc_hd__decap_12
Xmux_right_track_26.sky130_fd_sc_hd__buf_4_0_ mux_right_track_26.mux_l2_in_0_/X VGND
+ VGND VPWR VPWR _62_/A sky130_fd_sc_hd__clkbuf_1
XANTENNA_input14_A chanx_right_in[19] VGND VGND VPWR VPWR sky130_fd_sc_hd__diode_2
XFILLER_12_184 VGND VGND VPWR VPWR sky130_fd_sc_hd__fill_2
XFILLER_12_173 VGND VGND VPWR VPWR sky130_fd_sc_hd__fill_2
XFILLER_12_162 VGND VGND VPWR VPWR sky130_fd_sc_hd__fill_2
XFILLER_8_188 VGND VGND VPWR VPWR sky130_fd_sc_hd__decap_3
XFILLER_8_177 VGND VGND VPWR VPWR sky130_fd_sc_hd__fill_2
XFILLER_8_133 VGND VGND VPWR VPWR sky130_fd_sc_hd__decap_6
XANTENNA_input6_A chanx_right_in[11] VGND VGND VPWR VPWR sky130_fd_sc_hd__diode_2
XFILLER_26_221 VGND VGND VPWR VPWR sky130_fd_sc_hd__fill_2
Xmem_right_track_18.sky130_fd_sc_hd__dfxtp_1_0_ prog_clk_0_FTB00/X mux_right_track_16.mux_l2_in_0_/S
+ VGND VGND VPWR VPWR mux_right_track_18.mux_l1_in_0_/S sky130_fd_sc_hd__dfxtp_1
XFILLER_17_221 VGND VGND VPWR VPWR sky130_fd_sc_hd__fill_2
XFILLER_5_125 VGND VPWR VPWR VGND sky130_ef_sc_hd__decap_12
XFILLER_4_180 VGND VGND VPWR VPWR sky130_fd_sc_hd__decap_4
XFILLER_23_27 VGND VPWR VPWR VGND sky130_ef_sc_hd__decap_12
XFILLER_14_202 VGND VGND VPWR VPWR sky130_fd_sc_hd__fill_2
XFILLER_13_93 VGND VPWR VPWR VGND sky130_ef_sc_hd__decap_12
Xmux_bottom_track_25.mux_l2_in_0_ mux_bottom_track_25.mux_l2_in_0_/A0 mux_bottom_track_25.mux_l1_in_0_/X
+ output54/A VGND VGND VPWR VPWR mux_bottom_track_25.mux_l2_in_0_/X sky130_fd_sc_hd__mux2_1
Xmem_right_track_30.sky130_fd_sc_hd__dfxtp_1_1_ prog_clk_0_FTB00/X mux_right_track_30.mux_l1_in_0_/S
+ VGND VGND VPWR VPWR mux_right_track_30.mux_l2_in_0_/S sky130_fd_sc_hd__dfxtp_1
XFILLER_18_27 VGND VGND VPWR VPWR sky130_fd_sc_hd__fill_1
XFILLER_11_216 VGND VGND VPWR VPWR sky130_fd_sc_hd__fill_2
Xmux_right_track_34.mux_l1_in_0_ input35/X input48/X mux_right_track_34.mux_l1_in_0_/S
+ VGND VGND VPWR VPWR mux_right_track_34.mux_l1_in_0_/X sky130_fd_sc_hd__mux2_1
XFILLER_29_15 VGND VPWR VPWR VGND sky130_ef_sc_hd__decap_12
XFILLER_1_41 VGND VGND VPWR VPWR sky130_fd_sc_hd__decap_3
XFILLER_28_157 VGND VGND VPWR VPWR sky130_fd_sc_hd__fill_2
XFILLER_19_113 VGND VPWR VPWR VGND sky130_ef_sc_hd__decap_12
Xmux_bottom_track_9.mux_l2_in_0_ mux_bottom_track_9.mux_l2_in_0_/A0 mux_bottom_track_9.mux_l1_in_0_/X
+ mux_bottom_track_9.mux_l2_in_0_/S VGND VGND VPWR VPWR mux_bottom_track_9.mux_l2_in_0_/X
+ sky130_fd_sc_hd__mux2_1
XFILLER_10_83 VGND VGND VPWR VPWR sky130_fd_sc_hd__fill_1
XANTENNA_input44_A right_bottom_grid_pin_34_ VGND VGND VPWR VPWR sky130_fd_sc_hd__diode_2
Xmux_right_track_28.mux_l2_in_0__99 VGND VGND VPWR VPWR mux_right_track_28.mux_l2_in_0_/A0
+ mux_right_track_28.mux_l2_in_0__99/LO sky130_fd_sc_hd__conb_1