* NGSPICE file created from sb_1__1_.ext - technology: sky130A

* Black-box entry subcircuit for sky130_fd_sc_hd__dfxtp_2 abstract view
.subckt sky130_fd_sc_hd__dfxtp_2 CLK D VGND VNB VPB VPWR Q
.ends

* Black-box entry subcircuit for sky130_fd_sc_hd__fill_1 abstract view
.subckt sky130_fd_sc_hd__fill_1 VGND VNB VPB VPWR
.ends

* Black-box entry subcircuit for sky130_fd_sc_hd__diode_2 abstract view
.subckt sky130_fd_sc_hd__diode_2 DIODE VGND VNB VPB VPWR
.ends

* Black-box entry subcircuit for sky130_fd_sc_hd__mux2_1 abstract view
.subckt sky130_fd_sc_hd__mux2_1 A0 A1 S VGND VNB VPB VPWR X
.ends

* Black-box entry subcircuit for sky130_fd_sc_hd__dfxtp_1 abstract view
.subckt sky130_fd_sc_hd__dfxtp_1 CLK D VGND VNB VPB VPWR Q
.ends

* Black-box entry subcircuit for sky130_fd_sc_hd__clkbuf_2 abstract view
.subckt sky130_fd_sc_hd__clkbuf_2 A VGND VNB VPB VPWR X
.ends

* Black-box entry subcircuit for sky130_fd_sc_hd__clkbuf_1 abstract view
.subckt sky130_fd_sc_hd__clkbuf_1 A VGND VNB VPB VPWR X
.ends

* Black-box entry subcircuit for sky130_fd_sc_hd__decap_3 abstract view
.subckt sky130_fd_sc_hd__decap_3 VGND VNB VPB VPWR
.ends

* Black-box entry subcircuit for sky130_fd_sc_hd__conb_1 abstract view
.subckt sky130_fd_sc_hd__conb_1 VGND VNB VPB VPWR HI LO
.ends

* Black-box entry subcircuit for sky130_fd_sc_hd__decap_12 abstract view
.subckt sky130_fd_sc_hd__decap_12 VGND VNB VPB VPWR
.ends

* Black-box entry subcircuit for sky130_fd_sc_hd__buf_1 abstract view
.subckt sky130_fd_sc_hd__buf_1 A VGND VNB VPB VPWR X
.ends

* Black-box entry subcircuit for sky130_fd_sc_hd__tapvpwrvgnd_1 abstract view
.subckt sky130_fd_sc_hd__tapvpwrvgnd_1 VGND VPWR
.ends

* Black-box entry subcircuit for sky130_fd_sc_hd__buf_4 abstract view
.subckt sky130_fd_sc_hd__buf_4 A VGND VNB VPB VPWR X
.ends

* Black-box entry subcircuit for sky130_fd_sc_hd__decap_4 abstract view
.subckt sky130_fd_sc_hd__decap_4 VGND VNB VPB VPWR
.ends

* Black-box entry subcircuit for sky130_fd_sc_hd__fill_2 abstract view
.subckt sky130_fd_sc_hd__fill_2 VGND VNB VPB VPWR
.ends

* Black-box entry subcircuit for sky130_fd_sc_hd__decap_6 abstract view
.subckt sky130_fd_sc_hd__decap_6 VGND VNB VPB VPWR
.ends

* Black-box entry subcircuit for sky130_fd_sc_hd__clkbuf_16 abstract view
.subckt sky130_fd_sc_hd__clkbuf_16 A VGND VNB VPB VPWR X
.ends

* Black-box entry subcircuit for sky130_fd_sc_hd__decap_8 abstract view
.subckt sky130_fd_sc_hd__decap_8 VGND VNB VPB VPWR
.ends

* Black-box entry subcircuit for sky130_fd_sc_hd__buf_2 abstract view
.subckt sky130_fd_sc_hd__buf_2 A VGND VNB VPB VPWR X
.ends

.subckt sb_1__1_ Test_en_N_out Test_en_S_in bottom_left_grid_pin_42_ bottom_left_grid_pin_43_
+ bottom_left_grid_pin_44_ bottom_left_grid_pin_45_ bottom_left_grid_pin_46_ bottom_left_grid_pin_47_
+ bottom_left_grid_pin_48_ bottom_left_grid_pin_49_ ccff_head ccff_tail chanx_left_in[0]
+ chanx_left_in[10] chanx_left_in[11] chanx_left_in[12] chanx_left_in[13] chanx_left_in[14]
+ chanx_left_in[15] chanx_left_in[16] chanx_left_in[17] chanx_left_in[18] chanx_left_in[19]
+ chanx_left_in[1] chanx_left_in[2] chanx_left_in[3] chanx_left_in[4] chanx_left_in[5]
+ chanx_left_in[6] chanx_left_in[7] chanx_left_in[8] chanx_left_in[9] chanx_left_out[0]
+ chanx_left_out[10] chanx_left_out[11] chanx_left_out[12] chanx_left_out[13] chanx_left_out[14]
+ chanx_left_out[15] chanx_left_out[16] chanx_left_out[17] chanx_left_out[18] chanx_left_out[19]
+ chanx_left_out[1] chanx_left_out[2] chanx_left_out[3] chanx_left_out[4] chanx_left_out[5]
+ chanx_left_out[6] chanx_left_out[7] chanx_left_out[8] chanx_left_out[9] chanx_right_in[0]
+ chanx_right_in[10] chanx_right_in[11] chanx_right_in[12] chanx_right_in[13] chanx_right_in[14]
+ chanx_right_in[15] chanx_right_in[16] chanx_right_in[17] chanx_right_in[18] chanx_right_in[19]
+ chanx_right_in[1] chanx_right_in[2] chanx_right_in[3] chanx_right_in[4] chanx_right_in[5]
+ chanx_right_in[6] chanx_right_in[7] chanx_right_in[8] chanx_right_in[9] chanx_right_out[0]
+ chanx_right_out[10] chanx_right_out[11] chanx_right_out[12] chanx_right_out[13]
+ chanx_right_out[14] chanx_right_out[15] chanx_right_out[16] chanx_right_out[17]
+ chanx_right_out[18] chanx_right_out[19] chanx_right_out[1] chanx_right_out[2] chanx_right_out[3]
+ chanx_right_out[4] chanx_right_out[5] chanx_right_out[6] chanx_right_out[7] chanx_right_out[8]
+ chanx_right_out[9] chany_bottom_in[0] chany_bottom_in[10] chany_bottom_in[11] chany_bottom_in[12]
+ chany_bottom_in[13] chany_bottom_in[14] chany_bottom_in[15] chany_bottom_in[16]
+ chany_bottom_in[17] chany_bottom_in[18] chany_bottom_in[19] chany_bottom_in[1] chany_bottom_in[2]
+ chany_bottom_in[3] chany_bottom_in[4] chany_bottom_in[5] chany_bottom_in[6] chany_bottom_in[7]
+ chany_bottom_in[8] chany_bottom_in[9] chany_bottom_out[0] chany_bottom_out[10] chany_bottom_out[11]
+ chany_bottom_out[12] chany_bottom_out[13] chany_bottom_out[14] chany_bottom_out[15]
+ chany_bottom_out[16] chany_bottom_out[17] chany_bottom_out[18] chany_bottom_out[19]
+ chany_bottom_out[1] chany_bottom_out[2] chany_bottom_out[3] chany_bottom_out[4]
+ chany_bottom_out[5] chany_bottom_out[6] chany_bottom_out[7] chany_bottom_out[8]
+ chany_bottom_out[9] chany_top_in[0] chany_top_in[10] chany_top_in[11] chany_top_in[12]
+ chany_top_in[13] chany_top_in[14] chany_top_in[15] chany_top_in[16] chany_top_in[17]
+ chany_top_in[18] chany_top_in[19] chany_top_in[1] chany_top_in[2] chany_top_in[3]
+ chany_top_in[4] chany_top_in[5] chany_top_in[6] chany_top_in[7] chany_top_in[8]
+ chany_top_in[9] chany_top_out[0] chany_top_out[10] chany_top_out[11] chany_top_out[12]
+ chany_top_out[13] chany_top_out[14] chany_top_out[15] chany_top_out[16] chany_top_out[17]
+ chany_top_out[18] chany_top_out[19] chany_top_out[1] chany_top_out[2] chany_top_out[3]
+ chany_top_out[4] chany_top_out[5] chany_top_out[6] chany_top_out[7] chany_top_out[8]
+ chany_top_out[9] clk_1_E_out clk_1_N_in clk_1_W_out clk_2_E_out clk_2_N_in clk_2_N_out
+ clk_2_S_out clk_2_W_out clk_3_E_out clk_3_N_in clk_3_N_out clk_3_S_out clk_3_W_out
+ left_bottom_grid_pin_34_ left_bottom_grid_pin_35_ left_bottom_grid_pin_36_ left_bottom_grid_pin_37_
+ left_bottom_grid_pin_38_ left_bottom_grid_pin_39_ left_bottom_grid_pin_40_ left_bottom_grid_pin_41_
+ prog_clk_0_N_in prog_clk_1_E_out prog_clk_1_N_in prog_clk_1_W_out prog_clk_2_E_out
+ prog_clk_2_N_in prog_clk_2_N_out prog_clk_2_S_out prog_clk_2_W_out prog_clk_3_E_out
+ prog_clk_3_N_in prog_clk_3_N_out prog_clk_3_S_out prog_clk_3_W_out right_bottom_grid_pin_34_
+ right_bottom_grid_pin_35_ right_bottom_grid_pin_36_ right_bottom_grid_pin_37_ right_bottom_grid_pin_38_
+ right_bottom_grid_pin_39_ right_bottom_grid_pin_40_ right_bottom_grid_pin_41_ top_left_grid_pin_42_
+ top_left_grid_pin_43_ top_left_grid_pin_44_ top_left_grid_pin_45_ top_left_grid_pin_46_
+ top_left_grid_pin_47_ top_left_grid_pin_48_ top_left_grid_pin_49_ VPWR VGND
Xmem_right_track_2.sky130_fd_sc_hd__dfxtp_1_0_ clkbuf_3_5_0_mem_bottom_track_1.prog_clk/X
+ mux_right_track_0.mux_l4_in_0_/S VGND VGND VPWR VPWR mux_right_track_2.mux_l1_in_4_/S
+ sky130_fd_sc_hd__dfxtp_2
XFILLER_13_155 VGND VGND VPWR VPWR sky130_fd_sc_hd__fill_1
XANTENNA_input92_A clk_2_N_in VGND VGND VPWR VPWR sky130_fd_sc_hd__diode_2
Xmux_bottom_track_3.mux_l1_in_1_ input33/X _061_/A mux_bottom_track_3.mux_l1_in_4_/S
+ VGND VGND VPWR VPWR mux_bottom_track_3.mux_l1_in_1_/X sky130_fd_sc_hd__mux2_1
Xmem_left_track_17.sky130_fd_sc_hd__dfxtp_1_0_ clkbuf_3_2_0_mem_bottom_track_1.prog_clk/X
+ mux_left_track_9.mux_l4_in_0_/S VGND VGND VPWR VPWR mux_left_track_17.mux_l1_in_2_/S
+ sky130_fd_sc_hd__dfxtp_1
Xoutput220 output220/A VGND VGND VPWR VPWR prog_clk_3_N_out sky130_fd_sc_hd__clkbuf_2
XANTENNA_mux_right_track_4.mux_l1_in_0__A1 input82/X VGND VGND VPWR VPWR sky130_fd_sc_hd__diode_2
X_062_ _062_/A VGND VGND VPWR VPWR _062_/X sky130_fd_sc_hd__clkbuf_1
XFILLER_23_31 VGND VGND VPWR VPWR sky130_fd_sc_hd__fill_1
X_131_ _131_/A VGND VGND VPWR VPWR _131_/X sky130_fd_sc_hd__clkbuf_1
XANTENNA_input55_A chany_bottom_in[13] VGND VGND VPWR VPWR sky130_fd_sc_hd__diode_2
Xmem_right_track_8.sky130_fd_sc_hd__dfxtp_1_1_ clkbuf_3_5_0_mem_bottom_track_1.prog_clk/X
+ mux_right_track_8.mux_l1_in_2_/S VGND VGND VPWR VPWR mux_right_track_8.mux_l2_in_3_/S
+ sky130_fd_sc_hd__dfxtp_1
XFILLER_21_209 VGND VGND VPWR VPWR sky130_fd_sc_hd__decap_3
XANTENNA__119__A _119_/A VGND VGND VPWR VPWR sky130_fd_sc_hd__diode_2
X_114_ _114_/A VGND VGND VPWR VPWR _114_/X sky130_fd_sc_hd__clkbuf_1
X_045_ VGND VGND VPWR VPWR _045_/HI _045_/LO sky130_fd_sc_hd__conb_1
Xmem_bottom_track_25.sky130_fd_sc_hd__dfxtp_1_2_ clkbuf_3_4_0_mem_bottom_track_1.prog_clk/X
+ mux_bottom_track_25.mux_l2_in_3_/S VGND VGND VPWR VPWR mux_bottom_track_25.mux_l3_in_1_/S
+ sky130_fd_sc_hd__dfxtp_1
Xmux_bottom_track_17.mux_l1_in_0_ _114_/A _105_/A mux_bottom_track_17.mux_l1_in_2_/S
+ VGND VGND VPWR VPWR mux_bottom_track_17.mux_l1_in_0_/X sky130_fd_sc_hd__mux2_1
XANTENNA_input18_A chanx_left_in[16] VGND VGND VPWR VPWR sky130_fd_sc_hd__diode_2
XFILLER_28_183 VGND VGND VPWR VPWR sky130_fd_sc_hd__decap_12
XANTENNA_mux_right_track_0.mux_l1_in_4__A1 _129_/A VGND VGND VPWR VPWR sky130_fd_sc_hd__diode_2
XFILLER_6_89 VGND VGND VPWR VPWR sky130_fd_sc_hd__fill_1
X_028_ VGND VGND VPWR VPWR _028_/HI _028_/LO sky130_fd_sc_hd__conb_1
XFILLER_19_172 VGND VGND VPWR VPWR sky130_fd_sc_hd__fill_1
XANTENNA_mux_bottom_track_3.mux_l1_in_1__A0 input33/X VGND VGND VPWR VPWR sky130_fd_sc_hd__diode_2
Xmux_bottom_track_3.sky130_fd_sc_hd__buf_4_0_ mux_bottom_track_3.mux_l4_in_0_/X VGND
+ VGND VPWR VPWR _097_/A sky130_fd_sc_hd__clkbuf_1
Xinput120 top_left_grid_pin_49_ VGND VGND VPWR VPWR input120/X sky130_fd_sc_hd__buf_1
XFILLER_16_142 VGND VGND VPWR VPWR sky130_fd_sc_hd__fill_1
XPHY_170 VGND VPWR sky130_fd_sc_hd__tapvpwrvgnd_1
XANTENNA__127__A _127_/A VGND VGND VPWR VPWR sky130_fd_sc_hd__diode_2
XPHY_192 VGND VPWR sky130_fd_sc_hd__tapvpwrvgnd_1
XPHY_181 VGND VPWR sky130_fd_sc_hd__tapvpwrvgnd_1
XFILLER_31_178 VGND VGND VPWR VPWR sky130_fd_sc_hd__fill_1
XFILLER_22_123 VGND VGND VPWR VPWR sky130_fd_sc_hd__fill_1
Xmem_bottom_track_3.sky130_fd_sc_hd__dfxtp_1_3_ clkbuf_3_4_0_mem_bottom_track_1.prog_clk/X
+ mux_bottom_track_3.mux_l3_in_1_/S VGND VGND VPWR VPWR mux_bottom_track_3.mux_l4_in_0_/S
+ sky130_fd_sc_hd__dfxtp_1
XANTENNA_mux_right_track_0.mux_l2_in_3__A1 _089_/A VGND VGND VPWR VPWR sky130_fd_sc_hd__diode_2
XFILLER_26_64 VGND VGND VPWR VPWR sky130_fd_sc_hd__decap_3
XANTENNA_input85_A chany_top_in[4] VGND VGND VPWR VPWR sky130_fd_sc_hd__diode_2
Xmux_bottom_track_3.mux_l1_in_0_ _110_/A _101_/A mux_bottom_track_3.mux_l1_in_4_/S
+ VGND VGND VPWR VPWR mux_bottom_track_3.mux_l1_in_0_/X sky130_fd_sc_hd__mux2_1
XFILLER_8_193 VGND VGND VPWR VPWR sky130_fd_sc_hd__fill_1
Xclkbuf_1_0_0_mem_bottom_track_1.prog_clk clkbuf_0_mem_bottom_track_1.prog_clk/X VGND
+ VGND VPWR VPWR clkbuf_2_1_0_mem_bottom_track_1.prog_clk/A sky130_fd_sc_hd__clkbuf_1
XFILLER_27_204 VGND VGND VPWR VPWR sky130_fd_sc_hd__fill_1
Xoutput210 output210/A VGND VGND VPWR VPWR clk_3_N_out sky130_fd_sc_hd__clkbuf_2
Xoutput221 output221/A VGND VGND VPWR VPWR prog_clk_3_S_out sky130_fd_sc_hd__clkbuf_2
X_130_ _130_/A VGND VGND VPWR VPWR _130_/X sky130_fd_sc_hd__clkbuf_1
XANTENNA_mux_bottom_track_1.mux_l2_in_2__A0 _079_/A VGND VGND VPWR VPWR sky130_fd_sc_hd__diode_2
X_061_ _061_/A VGND VGND VPWR VPWR _061_/X sky130_fd_sc_hd__clkbuf_1
XFILLER_2_199 VGND VGND VPWR VPWR sky130_fd_sc_hd__fill_1
XANTENNA_input48_A chanx_right_in[7] VGND VGND VPWR VPWR sky130_fd_sc_hd__diode_2
Xmem_right_track_8.sky130_fd_sc_hd__dfxtp_1_0_ clkbuf_3_5_0_mem_bottom_track_1.prog_clk/X
+ mux_right_track_4.mux_l5_in_0_/S VGND VGND VPWR VPWR mux_right_track_8.mux_l1_in_2_/S
+ sky130_fd_sc_hd__dfxtp_1
Xprog_clk_2_W_FTB01 prog_clk_2_N_in VGND VGND VPWR VPWR output218/A sky130_fd_sc_hd__buf_4
XANTENNA__135__A _135_/A VGND VGND VPWR VPWR sky130_fd_sc_hd__diode_2
Xmux_left_track_9.sky130_fd_sc_hd__buf_4_0_ mux_left_track_9.mux_l4_in_0_/X VGND VGND
+ VPWR VPWR _060_/A sky130_fd_sc_hd__clkbuf_1
XANTENNA_input102_A prog_clk_0_N_in VGND VGND VPWR VPWR sky130_fd_sc_hd__diode_2
XFILLER_7_214 VGND VGND VPWR VPWR sky130_fd_sc_hd__fill_1
X_113_ _113_/A VGND VGND VPWR VPWR _113_/X sky130_fd_sc_hd__clkbuf_1
X_044_ VGND VGND VPWR VPWR _044_/HI _044_/LO sky130_fd_sc_hd__conb_1
Xmem_bottom_track_25.sky130_fd_sc_hd__dfxtp_1_1_ clkbuf_3_7_0_mem_bottom_track_1.prog_clk/X
+ mux_bottom_track_25.mux_l1_in_2_/S VGND VGND VPWR VPWR mux_bottom_track_25.mux_l2_in_3_/S
+ sky130_fd_sc_hd__dfxtp_1
XFILLER_28_195 VGND VGND VPWR VPWR sky130_fd_sc_hd__decap_3
Xmem_top_track_16.sky130_fd_sc_hd__dfxtp_1_3_ clkbuf_3_3_0_mem_bottom_track_1.prog_clk/X
+ mux_top_track_16.mux_l3_in_1_/S VGND VGND VPWR VPWR mux_top_track_16.mux_l4_in_0_/S
+ sky130_fd_sc_hd__dfxtp_1
Xinput110 right_bottom_grid_pin_39_ VGND VGND VPWR VPWR input110/X sky130_fd_sc_hd__buf_1
XANTENNA_mux_bottom_track_3.mux_l1_in_1__A1 _061_/A VGND VGND VPWR VPWR sky130_fd_sc_hd__diode_2
XANTENNA_input30_A chanx_left_in[9] VGND VGND VPWR VPWR sky130_fd_sc_hd__diode_2
Xmux_right_track_8.mux_l2_in_3_ _036_/HI _093_/A mux_right_track_8.mux_l2_in_3_/S
+ VGND VGND VPWR VPWR mux_right_track_8.mux_l2_in_3_/X sky130_fd_sc_hd__mux2_1
XFILLER_16_132 VGND VGND VPWR VPWR sky130_fd_sc_hd__fill_1
XPHY_193 VGND VPWR sky130_fd_sc_hd__tapvpwrvgnd_1
XPHY_160 VGND VPWR sky130_fd_sc_hd__tapvpwrvgnd_1
XPHY_171 VGND VPWR sky130_fd_sc_hd__tapvpwrvgnd_1
XFILLER_31_113 VGND VGND VPWR VPWR sky130_fd_sc_hd__fill_1
XPHY_182 VGND VPWR sky130_fd_sc_hd__tapvpwrvgnd_1
Xmux_left_track_25.sky130_fd_sc_hd__buf_4_0_ mux_left_track_25.mux_l4_in_0_/X VGND
+ VGND VPWR VPWR _068_/A sky130_fd_sc_hd__clkbuf_1
Xmux_top_track_0.mux_l2_in_3_ _037_/HI _089_/A mux_top_track_0.mux_l2_in_3_/S VGND
+ VGND VPWR VPWR mux_top_track_0.mux_l2_in_3_/X sky130_fd_sc_hd__mux2_1
Xmem_bottom_track_3.sky130_fd_sc_hd__dfxtp_1_2_ clkbuf_3_4_0_mem_bottom_track_1.prog_clk/X
+ mux_bottom_track_3.mux_l2_in_3_/S VGND VGND VPWR VPWR mux_bottom_track_3.mux_l3_in_1_/S
+ sky130_fd_sc_hd__dfxtp_1
XFILLER_30_190 VGND VGND VPWR VPWR sky130_fd_sc_hd__fill_1
XANTENNA_mux_left_track_9.mux_l2_in_2__A1 _133_/A VGND VGND VPWR VPWR sky130_fd_sc_hd__diode_2
XANTENNA_input78_A chany_top_in[16] VGND VGND VPWR VPWR sky130_fd_sc_hd__diode_2
Xclkbuf_3_4_0_mem_bottom_track_1.prog_clk clkbuf_3_5_0_mem_bottom_track_1.prog_clk/A
+ VGND VGND VPWR VPWR clkbuf_3_4_0_mem_bottom_track_1.prog_clk/X sky130_fd_sc_hd__clkbuf_1
XANTENNA_mux_bottom_track_1.mux_l1_in_3__A1 input4/X VGND VGND VPWR VPWR sky130_fd_sc_hd__diode_2
XFILLER_12_190 VGND VGND VPWR VPWR sky130_fd_sc_hd__fill_1
XFILLER_8_183 VGND VGND VPWR VPWR sky130_fd_sc_hd__fill_1
Xmux_top_track_0.mux_l1_in_4_ input11/X _129_/A mux_top_track_0.mux_l1_in_4_/S VGND
+ VGND VPWR VPWR mux_top_track_0.mux_l1_in_4_/X sky130_fd_sc_hd__mux2_1
Xoutput200 _123_/X VGND VGND VPWR VPWR chany_top_out[7] sky130_fd_sc_hd__clkbuf_2
XFILLER_4_90 VGND VGND VPWR VPWR sky130_fd_sc_hd__fill_1
Xoutput211 output211/A VGND VGND VPWR VPWR clk_3_S_out sky130_fd_sc_hd__clkbuf_2
Xoutput222 output222/A VGND VGND VPWR VPWR prog_clk_3_W_out sky130_fd_sc_hd__clkbuf_2
Xmux_right_track_8.mux_l4_in_0_ mux_right_track_8.mux_l3_in_1_/X mux_right_track_8.mux_l3_in_0_/X
+ mux_right_track_8.mux_l4_in_0_/S VGND VGND VPWR VPWR mux_right_track_8.mux_l4_in_0_/X
+ sky130_fd_sc_hd__mux2_1
X_060_ _060_/A VGND VGND VPWR VPWR _060_/X sky130_fd_sc_hd__clkbuf_1
Xmux_top_track_0.mux_l4_in_0_ mux_top_track_0.mux_l3_in_1_/X mux_top_track_0.mux_l3_in_0_/X
+ mux_top_track_0.mux_l4_in_0_/S VGND VGND VPWR VPWR mux_top_track_0.mux_l4_in_0_/X
+ sky130_fd_sc_hd__mux2_1
Xmem_bottom_track_9.sky130_fd_sc_hd__dfxtp_1_3_ clkbuf_3_1_0_mem_bottom_track_1.prog_clk/X
+ mux_bottom_track_9.mux_l3_in_1_/S VGND VGND VPWR VPWR mux_bottom_track_9.mux_l4_in_0_/S
+ sky130_fd_sc_hd__dfxtp_1
XFILLER_0_48 VGND VGND VPWR VPWR sky130_fd_sc_hd__fill_1
XANTENNA__061__A _061_/A VGND VGND VPWR VPWR sky130_fd_sc_hd__diode_2
X_112_ _112_/A VGND VGND VPWR VPWR _112_/X sky130_fd_sc_hd__clkbuf_1
X_043_ VGND VGND VPWR VPWR _043_/HI _043_/LO sky130_fd_sc_hd__conb_1
XANTENNA_input60_A chany_bottom_in[18] VGND VGND VPWR VPWR sky130_fd_sc_hd__diode_2
Xmux_right_track_8.mux_l3_in_1_ mux_right_track_8.mux_l2_in_3_/X mux_right_track_8.mux_l2_in_2_/X
+ mux_right_track_8.mux_l3_in_1_/S VGND VGND VPWR VPWR mux_right_track_8.mux_l3_in_1_/X
+ sky130_fd_sc_hd__mux2_1
Xmem_bottom_track_25.sky130_fd_sc_hd__dfxtp_1_0_ clkbuf_3_6_0_mem_bottom_track_1.prog_clk/X
+ mux_bottom_track_17.mux_l4_in_0_/S VGND VGND VPWR VPWR mux_bottom_track_25.mux_l1_in_2_/S
+ sky130_fd_sc_hd__dfxtp_1
Xclk_2_E_FTB01 input92/X VGND VGND VPWR VPWR output205/A sky130_fd_sc_hd__clkbuf_1
Xmux_top_track_0.mux_l3_in_1_ mux_top_track_0.mux_l2_in_3_/X mux_top_track_0.mux_l2_in_2_/X
+ mux_top_track_0.mux_l3_in_1_/S VGND VGND VPWR VPWR mux_top_track_0.mux_l3_in_1_/X
+ sky130_fd_sc_hd__mux2_1
XFILLER_20_89 VGND VGND VPWR VPWR sky130_fd_sc_hd__fill_1
XFILLER_29_87 VGND VGND VPWR VPWR sky130_fd_sc_hd__decap_4
Xmem_top_track_16.sky130_fd_sc_hd__dfxtp_1_2_ clkbuf_3_3_0_mem_bottom_track_1.prog_clk/X
+ mux_top_track_16.mux_l2_in_3_/S VGND VGND VPWR VPWR mux_top_track_16.mux_l3_in_1_/S
+ sky130_fd_sc_hd__dfxtp_1
XFILLER_31_99 VGND VGND VPWR VPWR sky130_fd_sc_hd__fill_2
Xinput111 right_bottom_grid_pin_40_ VGND VGND VPWR VPWR input111/X sky130_fd_sc_hd__buf_1
Xinput100 left_bottom_grid_pin_40_ VGND VGND VPWR VPWR input100/X sky130_fd_sc_hd__buf_1
XANTENNA_input23_A chanx_left_in[2] VGND VGND VPWR VPWR sky130_fd_sc_hd__diode_2
Xmux_right_track_8.mux_l2_in_2_ _083_/A _133_/A mux_right_track_8.mux_l2_in_3_/S VGND
+ VGND VPWR VPWR mux_right_track_8.mux_l2_in_2_/X sky130_fd_sc_hd__mux2_1
XPHY_150 VGND VPWR sky130_fd_sc_hd__tapvpwrvgnd_1
XPHY_161 VGND VPWR sky130_fd_sc_hd__tapvpwrvgnd_1
XPHY_172 VGND VPWR sky130_fd_sc_hd__tapvpwrvgnd_1
XPHY_183 VGND VPWR sky130_fd_sc_hd__tapvpwrvgnd_1
Xmux_top_track_0.mux_l2_in_2_ _079_/A mux_top_track_0.mux_l1_in_4_/X mux_top_track_0.mux_l2_in_3_/S
+ VGND VGND VPWR VPWR mux_top_track_0.mux_l2_in_2_/X sky130_fd_sc_hd__mux2_1
XFILLER_22_136 VGND VGND VPWR VPWR sky130_fd_sc_hd__decap_6
Xmem_bottom_track_3.sky130_fd_sc_hd__dfxtp_1_1_ clkbuf_3_4_0_mem_bottom_track_1.prog_clk/X
+ mux_bottom_track_3.mux_l1_in_4_/S VGND VGND VPWR VPWR mux_bottom_track_3.mux_l2_in_3_/S
+ sky130_fd_sc_hd__dfxtp_1
XFILLER_5_7 VGND VGND VPWR VPWR sky130_fd_sc_hd__fill_1
Xmux_top_track_0.mux_l1_in_3_ _119_/A _069_/A mux_top_track_0.mux_l1_in_4_/S VGND
+ VGND VPWR VPWR mux_top_track_0.mux_l1_in_3_/X sky130_fd_sc_hd__mux2_1
XANTENNA_mux_top_track_0.mux_l1_in_3__A0 _119_/A VGND VGND VPWR VPWR sky130_fd_sc_hd__diode_2
XANTENNA_input90_A chany_top_in[9] VGND VGND VPWR VPWR sky130_fd_sc_hd__diode_2
Xoutput201 _124_/X VGND VGND VPWR VPWR chany_top_out[8] sky130_fd_sc_hd__clkbuf_2
Xoutput212 output212/A VGND VGND VPWR VPWR clk_3_W_out sky130_fd_sc_hd__clkbuf_2
XANTENNA__059__A _059_/A VGND VGND VPWR VPWR sky130_fd_sc_hd__diode_2
XFILLER_23_78 VGND VGND VPWR VPWR sky130_fd_sc_hd__fill_1
Xprog_clk_0_FTB00 input102/X VGND VGND VPWR VPWR prog_clk_0_FTB00/X sky130_fd_sc_hd__clkbuf_16
Xmem_bottom_track_9.sky130_fd_sc_hd__dfxtp_1_2_ clkbuf_3_1_0_mem_bottom_track_1.prog_clk/X
+ mux_bottom_track_9.mux_l2_in_3_/S VGND VGND VPWR VPWR mux_bottom_track_9.mux_l3_in_1_/S
+ sky130_fd_sc_hd__dfxtp_1
XFILLER_20_201 VGND VGND VPWR VPWR sky130_fd_sc_hd__decap_8
XANTENNA_mux_top_track_0.mux_l2_in_2__A0 _079_/A VGND VGND VPWR VPWR sky130_fd_sc_hd__diode_2
X_111_ _111_/A VGND VGND VPWR VPWR _111_/X sky130_fd_sc_hd__clkbuf_1
X_042_ VGND VGND VPWR VPWR _042_/HI _042_/LO sky130_fd_sc_hd__conb_1
XANTENNA_input53_A chany_bottom_in[11] VGND VGND VPWR VPWR sky130_fd_sc_hd__diode_2
Xmux_right_track_8.mux_l3_in_0_ mux_right_track_8.mux_l2_in_1_/X mux_right_track_8.mux_l2_in_0_/X
+ mux_right_track_8.mux_l3_in_1_/S VGND VGND VPWR VPWR mux_right_track_8.mux_l3_in_0_/X
+ sky130_fd_sc_hd__mux2_1
Xmux_top_track_0.mux_l3_in_0_ mux_top_track_0.mux_l2_in_1_/X mux_top_track_0.mux_l2_in_0_/X
+ mux_top_track_0.mux_l3_in_1_/S VGND VGND VPWR VPWR mux_top_track_0.mux_l3_in_0_/X
+ sky130_fd_sc_hd__mux2_1
Xprog_clk_3_N_FTB01 input104/X VGND VGND VPWR VPWR output220/A sky130_fd_sc_hd__clkbuf_1
XANTENNA_mux_bottom_track_3.mux_l1_in_4__A0 input24/X VGND VGND VPWR VPWR sky130_fd_sc_hd__diode_2
Xmem_top_track_16.sky130_fd_sc_hd__dfxtp_1_1_ clkbuf_3_3_0_mem_bottom_track_1.prog_clk/X
+ mux_top_track_16.mux_l1_in_2_/S VGND VGND VPWR VPWR mux_top_track_16.mux_l2_in_3_/S
+ sky130_fd_sc_hd__dfxtp_1
XANTENNA_mux_bottom_track_5.mux_l2_in_1__A0 _071_/A VGND VGND VPWR VPWR sky130_fd_sc_hd__diode_2
XANTENNA__067__A _067_/A VGND VGND VPWR VPWR sky130_fd_sc_hd__diode_2
Xinput101 left_bottom_grid_pin_41_ VGND VGND VPWR VPWR input101/X sky130_fd_sc_hd__buf_1
Xinput112 right_bottom_grid_pin_41_ VGND VGND VPWR VPWR input112/X sky130_fd_sc_hd__buf_1
XANTENNA_input16_A chanx_left_in[14] VGND VGND VPWR VPWR sky130_fd_sc_hd__diode_2
Xmux_right_track_8.mux_l2_in_1_ _123_/A mux_right_track_8.mux_l1_in_2_/X mux_right_track_8.mux_l2_in_3_/S
+ VGND VGND VPWR VPWR mux_right_track_8.mux_l2_in_1_/X sky130_fd_sc_hd__mux2_1
XFILLER_16_178 VGND VGND VPWR VPWR sky130_fd_sc_hd__fill_1
XPHY_140 VGND VPWR sky130_fd_sc_hd__tapvpwrvgnd_1
XPHY_151 VGND VPWR sky130_fd_sc_hd__tapvpwrvgnd_1
XPHY_162 VGND VPWR sky130_fd_sc_hd__tapvpwrvgnd_1
XPHY_173 VGND VPWR sky130_fd_sc_hd__tapvpwrvgnd_1
XPHY_184 VGND VPWR sky130_fd_sc_hd__tapvpwrvgnd_1
Xmux_top_track_0.mux_l2_in_1_ mux_top_track_0.mux_l1_in_3_/X mux_top_track_0.mux_l1_in_2_/X
+ mux_top_track_0.mux_l2_in_3_/S VGND VGND VPWR VPWR mux_top_track_0.mux_l2_in_1_/X
+ sky130_fd_sc_hd__mux2_1
Xmem_bottom_track_3.sky130_fd_sc_hd__dfxtp_1_0_ clkbuf_3_4_0_mem_bottom_track_1.prog_clk/X
+ mux_bottom_track_1.mux_l4_in_0_/S VGND VGND VPWR VPWR mux_bottom_track_3.mux_l1_in_4_/S
+ sky130_fd_sc_hd__dfxtp_2
XANTENNA_input8_A bottom_left_grid_pin_48_ VGND VGND VPWR VPWR sky130_fd_sc_hd__diode_2
XANTENNA_mux_left_track_1.mux_l1_in_1__A0 _059_/A VGND VGND VPWR VPWR sky130_fd_sc_hd__diode_2
XFILLER_26_89 VGND VGND VPWR VPWR sky130_fd_sc_hd__decap_4
XFILLER_27_207 VGND VGND VPWR VPWR sky130_fd_sc_hd__fill_1
Xmux_right_track_8.mux_l1_in_2_ input64/X input109/X mux_right_track_8.mux_l1_in_2_/S
+ VGND VGND VPWR VPWR mux_right_track_8.mux_l1_in_2_/X sky130_fd_sc_hd__mux2_1
XANTENNA_mux_top_track_0.mux_l1_in_3__A1 _069_/A VGND VGND VPWR VPWR sky130_fd_sc_hd__diode_2
Xmux_top_track_0.mux_l1_in_2_ _059_/A input42/X mux_top_track_0.mux_l1_in_4_/S VGND
+ VGND VPWR VPWR mux_top_track_0.mux_l1_in_2_/X sky130_fd_sc_hd__mux2_1
XANTENNA_input118_A top_left_grid_pin_47_ VGND VGND VPWR VPWR sky130_fd_sc_hd__diode_2
XANTENNA_input83_A chany_top_in[2] VGND VGND VPWR VPWR sky130_fd_sc_hd__diode_2
Xoutput202 _125_/X VGND VGND VPWR VPWR chany_top_out[9] sky130_fd_sc_hd__clkbuf_2
Xoutput213 output213/A VGND VGND VPWR VPWR prog_clk_1_E_out sky130_fd_sc_hd__clkbuf_2
Xmux_top_track_16.sky130_fd_sc_hd__buf_4_0_ mux_top_track_16.mux_l4_in_0_/X VGND VGND
+ VPWR VPWR _124_/A sky130_fd_sc_hd__clkbuf_1
XANTENNA__075__A _075_/A VGND VGND VPWR VPWR sky130_fd_sc_hd__diode_2
Xmem_bottom_track_9.sky130_fd_sc_hd__dfxtp_1_1_ clkbuf_3_1_0_mem_bottom_track_1.prog_clk/X
+ mux_bottom_track_9.mux_l1_in_2_/S VGND VGND VPWR VPWR mux_bottom_track_9.mux_l2_in_3_/S
+ sky130_fd_sc_hd__dfxtp_1
XFILLER_0_28 VGND VGND VPWR VPWR sky130_fd_sc_hd__fill_1
Xmux_bottom_track_25.mux_l2_in_3_ _046_/HI input21/X mux_bottom_track_25.mux_l2_in_3_/S
+ VGND VGND VPWR VPWR mux_bottom_track_25.mux_l2_in_3_/X sky130_fd_sc_hd__mux2_1
X_110_ _110_/A VGND VGND VPWR VPWR _110_/X sky130_fd_sc_hd__clkbuf_1
Xmem_bottom_track_17.sky130_fd_sc_hd__dfxtp_1_3_ clkbuf_3_6_0_mem_bottom_track_1.prog_clk/X
+ mux_bottom_track_17.mux_l3_in_1_/S VGND VGND VPWR VPWR mux_bottom_track_17.mux_l4_in_0_/S
+ sky130_fd_sc_hd__dfxtp_1
X_041_ VGND VGND VPWR VPWR _041_/HI _041_/LO sky130_fd_sc_hd__conb_1
XANTENNA_input46_A chanx_right_in[5] VGND VGND VPWR VPWR sky130_fd_sc_hd__diode_2
Xmux_right_track_4.mux_l2_in_7_ _035_/HI _091_/A mux_right_track_4.mux_l2_in_7_/S
+ VGND VGND VPWR VPWR mux_right_track_4.mux_l2_in_7_/X sky130_fd_sc_hd__mux2_1
XANTENNA_mux_right_track_8.mux_l1_in_2__A0 input64/X VGND VGND VPWR VPWR sky130_fd_sc_hd__diode_2
XFILLER_29_67 VGND VGND VPWR VPWR sky130_fd_sc_hd__fill_2
XANTENNA_input100_A left_bottom_grid_pin_40_ VGND VGND VPWR VPWR sky130_fd_sc_hd__diode_2
Xmem_top_track_16.sky130_fd_sc_hd__dfxtp_1_0_ clkbuf_3_3_0_mem_bottom_track_1.prog_clk/X
+ mux_top_track_8.mux_l4_in_0_/S VGND VGND VPWR VPWR mux_top_track_16.mux_l1_in_2_/S
+ sky130_fd_sc_hd__dfxtp_1
Xmux_bottom_track_9.mux_l2_in_3_ _050_/HI _093_/A mux_bottom_track_9.mux_l2_in_3_/S
+ VGND VGND VPWR VPWR mux_bottom_track_9.mux_l2_in_3_/X sky130_fd_sc_hd__mux2_1
XANTENNA_mux_bottom_track_5.mux_l2_in_1__A1 input48/X VGND VGND VPWR VPWR sky130_fd_sc_hd__diode_2
XFILLER_25_113 VGND VGND VPWR VPWR sky130_fd_sc_hd__fill_1
Xmux_bottom_track_25.mux_l4_in_0_ mux_bottom_track_25.mux_l3_in_1_/X mux_bottom_track_25.mux_l3_in_0_/X
+ mux_bottom_track_25.mux_l4_in_0_/S VGND VGND VPWR VPWR mux_bottom_track_25.mux_l4_in_0_/X
+ sky130_fd_sc_hd__mux2_1
XANTENNA__083__A _083_/A VGND VGND VPWR VPWR sky130_fd_sc_hd__diode_2
XFILLER_25_168 VGND VGND VPWR VPWR sky130_fd_sc_hd__decap_3
Xmux_top_track_0.sky130_fd_sc_hd__buf_4_0_ mux_top_track_0.mux_l4_in_0_/X VGND VGND
+ VPWR VPWR _116_/A sky130_fd_sc_hd__clkbuf_1
Xinput102 prog_clk_0_N_in VGND VGND VPWR VPWR input102/X sky130_fd_sc_hd__buf_1
Xinput113 top_left_grid_pin_42_ VGND VGND VPWR VPWR input113/X sky130_fd_sc_hd__buf_1
Xmux_right_track_8.mux_l2_in_0_ mux_right_track_8.mux_l1_in_1_/X mux_right_track_8.mux_l1_in_0_/X
+ mux_right_track_8.mux_l2_in_3_/S VGND VGND VPWR VPWR mux_right_track_8.mux_l2_in_0_/X
+ sky130_fd_sc_hd__mux2_1
XPHY_130 VGND VPWR sky130_fd_sc_hd__tapvpwrvgnd_1
XPHY_141 VGND VPWR sky130_fd_sc_hd__tapvpwrvgnd_1
XPHY_152 VGND VPWR sky130_fd_sc_hd__tapvpwrvgnd_1
XPHY_185 VGND VPWR sky130_fd_sc_hd__tapvpwrvgnd_1
XANTENNA_mux_right_track_8.mux_l2_in_1__A0 _123_/A VGND VGND VPWR VPWR sky130_fd_sc_hd__diode_2
XPHY_163 VGND VPWR sky130_fd_sc_hd__tapvpwrvgnd_1
XPHY_174 VGND VPWR sky130_fd_sc_hd__tapvpwrvgnd_1
Xmux_top_track_0.mux_l2_in_0_ mux_top_track_0.mux_l1_in_1_/X mux_top_track_0.mux_l1_in_0_/X
+ mux_top_track_0.mux_l2_in_3_/S VGND VGND VPWR VPWR mux_top_track_0.mux_l2_in_0_/X
+ sky130_fd_sc_hd__mux2_1
XANTENNA_mux_left_track_1.mux_l1_in_1__A1 _109_/A VGND VGND VPWR VPWR sky130_fd_sc_hd__diode_2
XANTENNA_mux_bottom_track_3.mux_l2_in_3__A1 _090_/A VGND VGND VPWR VPWR sky130_fd_sc_hd__diode_2
Xmux_bottom_track_25.mux_l3_in_1_ mux_bottom_track_25.mux_l2_in_3_/X mux_bottom_track_25.mux_l2_in_2_/X
+ mux_bottom_track_25.mux_l3_in_1_/S VGND VGND VPWR VPWR mux_bottom_track_25.mux_l3_in_1_/X
+ sky130_fd_sc_hd__mux2_1
Xmux_bottom_track_9.mux_l4_in_0_ mux_bottom_track_9.mux_l3_in_1_/X mux_bottom_track_9.mux_l3_in_0_/X
+ mux_bottom_track_9.mux_l4_in_0_/S VGND VGND VPWR VPWR mux_bottom_track_9.mux_l4_in_0_/X
+ sky130_fd_sc_hd__mux2_1
Xmux_right_track_8.mux_l1_in_1_ input105/X _113_/A mux_right_track_8.mux_l1_in_2_/S
+ VGND VGND VPWR VPWR mux_right_track_8.mux_l1_in_1_/X sky130_fd_sc_hd__mux2_1
XFILLER_18_208 VGND VGND VPWR VPWR sky130_fd_sc_hd__decap_4
Xmux_top_track_0.mux_l1_in_1_ input119/X input117/X mux_top_track_0.mux_l1_in_4_/S
+ VGND VGND VPWR VPWR mux_top_track_0.mux_l1_in_1_/X sky130_fd_sc_hd__mux2_1
XANTENNA_input76_A chany_top_in[14] VGND VGND VPWR VPWR sky130_fd_sc_hd__diode_2
XANTENNA_mux_bottom_track_17.mux_l1_in_0__A0 _114_/A VGND VGND VPWR VPWR sky130_fd_sc_hd__diode_2
Xoutput203 output203/A VGND VGND VPWR VPWR clk_1_E_out sky130_fd_sc_hd__clkbuf_2
Xoutput214 output214/A VGND VGND VPWR VPWR prog_clk_1_W_out sky130_fd_sc_hd__clkbuf_2
XFILLER_23_211 VGND VGND VPWR VPWR sky130_fd_sc_hd__fill_1
XFILLER_23_58 VGND VGND VPWR VPWR sky130_fd_sc_hd__decap_3
XANTENNA__091__A _091_/A VGND VGND VPWR VPWR sky130_fd_sc_hd__diode_2
Xmem_bottom_track_9.sky130_fd_sc_hd__dfxtp_1_0_ clkbuf_3_1_0_mem_bottom_track_1.prog_clk/X
+ mux_bottom_track_5.mux_l5_in_0_/S VGND VGND VPWR VPWR mux_bottom_track_9.mux_l1_in_2_/S
+ sky130_fd_sc_hd__dfxtp_1
Xmux_bottom_track_25.mux_l2_in_2_ _095_/A _086_/A mux_bottom_track_25.mux_l2_in_3_/S
+ VGND VGND VPWR VPWR mux_bottom_track_25.mux_l2_in_2_/X sky130_fd_sc_hd__mux2_1
Xmux_bottom_track_9.mux_l3_in_1_ mux_bottom_track_9.mux_l2_in_3_/X mux_bottom_track_9.mux_l2_in_2_/X
+ mux_bottom_track_9.mux_l3_in_1_/S VGND VGND VPWR VPWR mux_bottom_track_9.mux_l3_in_1_/X
+ sky130_fd_sc_hd__mux2_1
XFILLER_18_47 VGND VGND VPWR VPWR sky130_fd_sc_hd__fill_1
Xmem_bottom_track_17.sky130_fd_sc_hd__dfxtp_1_2_ clkbuf_3_3_0_mem_bottom_track_1.prog_clk/X
+ mux_bottom_track_17.mux_l2_in_3_/S VGND VGND VPWR VPWR mux_bottom_track_17.mux_l3_in_1_/S
+ sky130_fd_sc_hd__dfxtp_1
XANTENNA__086__A _086_/A VGND VGND VPWR VPWR sky130_fd_sc_hd__diode_2
X_040_ VGND VGND VPWR VPWR _040_/HI _040_/LO sky130_fd_sc_hd__conb_1
XANTENNA_input39_A chanx_right_in[17] VGND VGND VPWR VPWR sky130_fd_sc_hd__diode_2
XANTENNA_prog_clk_2_E_FTB01_A prog_clk_2_N_in VGND VGND VPWR VPWR sky130_fd_sc_hd__diode_2
Xmux_right_track_4.mux_l2_in_6_ _082_/A _131_/A mux_right_track_4.mux_l2_in_7_/S VGND
+ VGND VPWR VPWR mux_right_track_4.mux_l2_in_6_/X sky130_fd_sc_hd__mux2_1
XFILLER_20_48 VGND VGND VPWR VPWR sky130_fd_sc_hd__fill_2
Xmux_bottom_track_9.mux_l2_in_2_ input13/X _083_/A mux_bottom_track_9.mux_l2_in_3_/S
+ VGND VGND VPWR VPWR mux_bottom_track_9.mux_l2_in_2_/X sky130_fd_sc_hd__mux2_1
XANTENNA_mux_top_track_2.mux_l1_in_4__A0 _081_/A VGND VGND VPWR VPWR sky130_fd_sc_hd__diode_2
Xinput103 prog_clk_1_N_in VGND VGND VPWR VPWR input103/X sky130_fd_sc_hd__buf_1
Xinput114 top_left_grid_pin_43_ VGND VGND VPWR VPWR input114/X sky130_fd_sc_hd__buf_1
XPHY_120 VGND VPWR sky130_fd_sc_hd__tapvpwrvgnd_1
XPHY_131 VGND VPWR sky130_fd_sc_hd__tapvpwrvgnd_1
XPHY_142 VGND VPWR sky130_fd_sc_hd__tapvpwrvgnd_1
XPHY_153 VGND VPWR sky130_fd_sc_hd__tapvpwrvgnd_1
XFILLER_24_191 VGND VGND VPWR VPWR sky130_fd_sc_hd__decap_8
XPHY_164 VGND VPWR sky130_fd_sc_hd__tapvpwrvgnd_1
XPHY_175 VGND VPWR sky130_fd_sc_hd__tapvpwrvgnd_1