* NGSPICE file created from sb_1__0_.ext - technology: sky130A

* Black-box entry subcircuit for sky130_fd_sc_hd__tapvpwrvgnd_1 abstract view
.subckt sky130_fd_sc_hd__tapvpwrvgnd_1 VGND VPWR
.ends

* Black-box entry subcircuit for sky130_fd_sc_hd__diode_2 abstract view
.subckt sky130_fd_sc_hd__diode_2 DIODE VGND VNB VPB VPWR
.ends

* Black-box entry subcircuit for sky130_fd_sc_hd__dfxtp_1 abstract view
.subckt sky130_fd_sc_hd__dfxtp_1 CLK D VGND VNB VPB VPWR Q
.ends

* Black-box entry subcircuit for sky130_ef_sc_hd__decap_12 abstract view
.subckt sky130_ef_sc_hd__decap_12 VGND VPWR VPB VNB
.ends

* Black-box entry subcircuit for sky130_fd_sc_hd__decap_8 abstract view
.subckt sky130_fd_sc_hd__decap_8 VGND VNB VPB VPWR
.ends

* Black-box entry subcircuit for sky130_fd_sc_hd__fill_2 abstract view
.subckt sky130_fd_sc_hd__fill_2 VGND VNB VPB VPWR
.ends

* Black-box entry subcircuit for sky130_fd_sc_hd__decap_3 abstract view
.subckt sky130_fd_sc_hd__decap_3 VGND VNB VPB VPWR
.ends

* Black-box entry subcircuit for sky130_fd_sc_hd__buf_2 abstract view
.subckt sky130_fd_sc_hd__buf_2 A VGND VNB VPB VPWR X
.ends

* Black-box entry subcircuit for sky130_fd_sc_hd__mux2_1 abstract view
.subckt sky130_fd_sc_hd__mux2_1 A0 A1 S VGND VNB VPB VPWR X
.ends

* Black-box entry subcircuit for sky130_fd_sc_hd__fill_1 abstract view
.subckt sky130_fd_sc_hd__fill_1 VGND VNB VPB VPWR
.ends

* Black-box entry subcircuit for sky130_fd_sc_hd__conb_1 abstract view
.subckt sky130_fd_sc_hd__conb_1 VGND VNB VPB VPWR HI LO
.ends

* Black-box entry subcircuit for sky130_fd_sc_hd__decap_6 abstract view
.subckt sky130_fd_sc_hd__decap_6 VGND VNB VPB VPWR
.ends

* Black-box entry subcircuit for sky130_fd_sc_hd__decap_4 abstract view
.subckt sky130_fd_sc_hd__decap_4 VGND VNB VPB VPWR
.ends

* Black-box entry subcircuit for sky130_fd_sc_hd__buf_4 abstract view
.subckt sky130_fd_sc_hd__buf_4 A VGND VNB VPB VPWR X
.ends

* Black-box entry subcircuit for sky130_fd_sc_hd__buf_8 abstract view
.subckt sky130_fd_sc_hd__buf_8 A VGND VNB VPB VPWR X
.ends

.subckt sb_1__0_ SC_IN_TOP SC_OUT_TOP Test_en_N_out Test_en_S_in VGND VPWR ccff_head
+ ccff_tail chanx_left_in[0] chanx_left_in[10] chanx_left_in[11] chanx_left_in[12]
+ chanx_left_in[13] chanx_left_in[14] chanx_left_in[15] chanx_left_in[16] chanx_left_in[17]
+ chanx_left_in[18] chanx_left_in[19] chanx_left_in[1] chanx_left_in[2] chanx_left_in[3]
+ chanx_left_in[4] chanx_left_in[5] chanx_left_in[6] chanx_left_in[7] chanx_left_in[8]
+ chanx_left_in[9] chanx_left_out[0] chanx_left_out[10] chanx_left_out[11] chanx_left_out[12]
+ chanx_left_out[13] chanx_left_out[14] chanx_left_out[15] chanx_left_out[16] chanx_left_out[17]
+ chanx_left_out[18] chanx_left_out[19] chanx_left_out[1] chanx_left_out[2] chanx_left_out[3]
+ chanx_left_out[4] chanx_left_out[5] chanx_left_out[6] chanx_left_out[7] chanx_left_out[8]
+ chanx_left_out[9] chanx_right_in[0] chanx_right_in[10] chanx_right_in[11] chanx_right_in[12]
+ chanx_right_in[13] chanx_right_in[14] chanx_right_in[15] chanx_right_in[16] chanx_right_in[17]
+ chanx_right_in[18] chanx_right_in[19] chanx_right_in[1] chanx_right_in[2] chanx_right_in[3]
+ chanx_right_in[4] chanx_right_in[5] chanx_right_in[6] chanx_right_in[7] chanx_right_in[8]
+ chanx_right_in[9] chanx_right_out[0] chanx_right_out[10] chanx_right_out[11] chanx_right_out[12]
+ chanx_right_out[13] chanx_right_out[14] chanx_right_out[15] chanx_right_out[16]
+ chanx_right_out[17] chanx_right_out[18] chanx_right_out[19] chanx_right_out[1] chanx_right_out[2]
+ chanx_right_out[3] chanx_right_out[4] chanx_right_out[5] chanx_right_out[6] chanx_right_out[7]
+ chanx_right_out[8] chanx_right_out[9] chany_top_in[0] chany_top_in[10] chany_top_in[11]
+ chany_top_in[12] chany_top_in[13] chany_top_in[14] chany_top_in[15] chany_top_in[16]
+ chany_top_in[17] chany_top_in[18] chany_top_in[19] chany_top_in[1] chany_top_in[2]
+ chany_top_in[3] chany_top_in[4] chany_top_in[5] chany_top_in[6] chany_top_in[7]
+ chany_top_in[8] chany_top_in[9] chany_top_out[0] chany_top_out[10] chany_top_out[11]
+ chany_top_out[12] chany_top_out[13] chany_top_out[14] chany_top_out[15] chany_top_out[16]
+ chany_top_out[17] chany_top_out[18] chany_top_out[19] chany_top_out[1] chany_top_out[2]
+ chany_top_out[3] chany_top_out[4] chany_top_out[5] chany_top_out[6] chany_top_out[7]
+ chany_top_out[8] chany_top_out[9] clk_3_N_out clk_3_S_in left_bottom_grid_pin_11_
+ left_bottom_grid_pin_13_ left_bottom_grid_pin_15_ left_bottom_grid_pin_17_ left_bottom_grid_pin_1_
+ left_bottom_grid_pin_3_ left_bottom_grid_pin_5_ left_bottom_grid_pin_7_ left_bottom_grid_pin_9_
+ prog_clk_0_N_in prog_clk_3_N_out prog_clk_3_S_in right_bottom_grid_pin_11_ right_bottom_grid_pin_13_
+ right_bottom_grid_pin_15_ right_bottom_grid_pin_17_ right_bottom_grid_pin_1_ right_bottom_grid_pin_3_
+ right_bottom_grid_pin_5_ right_bottom_grid_pin_7_ right_bottom_grid_pin_9_ top_left_grid_pin_42_
+ top_left_grid_pin_43_ top_left_grid_pin_44_ top_left_grid_pin_45_ top_left_grid_pin_46_
+ top_left_grid_pin_47_ top_left_grid_pin_48_ top_left_grid_pin_49_
XTAP_188 VGND VPWR sky130_fd_sc_hd__tapvpwrvgnd_1
XTAP_177 VGND VPWR sky130_fd_sc_hd__tapvpwrvgnd_1
XANTENNA_mem_right_track_0.sky130_fd_sc_hd__dfxtp_1_0__CLK prog_clk_0_FTB00/X VGND
+ VGND VPWR VPWR sky130_fd_sc_hd__diode_2
Xmem_right_track_2.sky130_fd_sc_hd__dfxtp_1_0_ prog_clk_0_FTB00/X mux_right_track_0.mux_l4_in_0_/S
+ VGND VGND VPWR VPWR mux_right_track_2.mux_l1_in_1_/S sky130_fd_sc_hd__dfxtp_1
XFILLER_26_85 VGND VPWR VPWR VGND sky130_ef_sc_hd__decap_12
Xmem_left_track_17.sky130_fd_sc_hd__dfxtp_1_0_ prog_clk_0_FTB00/X mux_left_track_9.mux_l4_in_0_/S
+ VGND VGND VPWR VPWR mux_left_track_17.mux_l1_in_3_/S sky130_fd_sc_hd__dfxtp_1
XFILLER_9_137 VGND VPWR VPWR VGND sky130_ef_sc_hd__decap_12
XFILLER_12_32 VGND VGND VPWR VPWR sky130_fd_sc_hd__decap_8
XFILLER_24_206 VGND VGND VPWR VPWR sky130_fd_sc_hd__fill_2
XANTENNA_mem_left_track_9.sky130_fd_sc_hd__dfxtp_1_0__CLK prog_clk_0_FTB00/X VGND
+ VGND VPWR VPWR sky130_fd_sc_hd__diode_2
XANTENNA_mux_top_track_0.mux_l1_in_0__A0 top_left_grid_pin_44_ VGND VGND VPWR VPWR
+ sky130_fd_sc_hd__diode_2
XFILLER_30_209 VGND VGND VPWR VPWR sky130_fd_sc_hd__decap_3
XANTENNA_mux_right_track_4.mux_l1_in_0__A1 chany_top_in[1] VGND VGND VPWR VPWR sky130_fd_sc_hd__diode_2
X_062_ chanx_right_in[4] VGND VGND VPWR VPWR chanx_left_out[5] sky130_fd_sc_hd__buf_2
Xmem_right_track_8.sky130_fd_sc_hd__dfxtp_1_1_ prog_clk_0_FTB00/X mux_right_track_8.mux_l1_in_0_/S
+ VGND VGND VPWR VPWR mux_right_track_8.mux_l2_in_3_/S sky130_fd_sc_hd__dfxtp_1
Xmux_top_track_10.mux_l3_in_0_ mux_top_track_10.mux_l2_in_1_/X mux_top_track_10.mux_l2_in_0_/X
+ mux_top_track_10.mux_l3_in_0_/S VGND VGND VPWR VPWR mux_top_track_10.mux_l3_in_0_/X
+ sky130_fd_sc_hd__mux2_1
XANTENNA_mem_top_track_10.sky130_fd_sc_hd__dfxtp_1_1__CLK prog_clk_0_FTB00/X VGND
+ VGND VPWR VPWR sky130_fd_sc_hd__diode_2
XFILLER_2_121 VGND VPWR VPWR VGND sky130_ef_sc_hd__decap_12
XFILLER_0_57 VGND VPWR VPWR VGND sky130_ef_sc_hd__decap_12
XFILLER_2_165 VGND VPWR VPWR VGND sky130_ef_sc_hd__decap_12
XANTENNA_mux_left_track_33.mux_l1_in_2__A1 left_bottom_grid_pin_7_ VGND VGND VPWR
+ VPWR sky130_fd_sc_hd__diode_2
XFILLER_9_55 VGND VGND VPWR VPWR sky130_fd_sc_hd__fill_1
X_114_ chanx_left_in[7] VGND VGND VPWR VPWR chany_top_out[17] sky130_fd_sc_hd__buf_2
X_045_ VGND VGND VPWR VPWR _045_/HI _045_/LO sky130_fd_sc_hd__conb_1
Xmux_top_track_10.mux_l2_in_1_ _032_/HI chanx_left_in[9] mux_top_track_10.mux_l2_in_1_/S
+ VGND VGND VPWR VPWR mux_top_track_10.mux_l2_in_1_/X sky130_fd_sc_hd__mux2_1
X_028_ VGND VGND VPWR VPWR _028_/HI _028_/LO sky130_fd_sc_hd__conb_1
XFILLER_13_3 VGND VGND VPWR VPWR sky130_fd_sc_hd__decap_3
XANTENNA_mux_right_track_2.mux_l2_in_1__A1 right_bottom_grid_pin_7_ VGND VGND VPWR
+ VPWR sky130_fd_sc_hd__diode_2
XANTENNA_mux_top_track_0.mux_l2_in_1__S mux_top_track_0.mux_l2_in_3_/S VGND VGND VPWR
+ VPWR sky130_fd_sc_hd__diode_2
XFILLER_16_197 VGND VGND VPWR VPWR sky130_fd_sc_hd__fill_1
XFILLER_16_131 VGND VGND VPWR VPWR sky130_fd_sc_hd__decap_8
XTAP_189 VGND VPWR sky130_fd_sc_hd__tapvpwrvgnd_1
XTAP_178 VGND VPWR sky130_fd_sc_hd__tapvpwrvgnd_1
XTAP_167 VGND VPWR sky130_fd_sc_hd__tapvpwrvgnd_1
XANTENNA_mem_right_track_24.sky130_fd_sc_hd__dfxtp_1_0__CLK prog_clk_0_FTB00/X VGND
+ VGND VPWR VPWR sky130_fd_sc_hd__diode_2
XTAP_156 VGND VPWR sky130_fd_sc_hd__tapvpwrvgnd_1
XFILLER_22_156 VGND VGND VPWR VPWR sky130_fd_sc_hd__fill_1
XTAP_145 VGND VPWR sky130_fd_sc_hd__tapvpwrvgnd_1
XTAP_134 VGND VPWR sky130_fd_sc_hd__tapvpwrvgnd_1
XANTENNA_mux_top_track_6.mux_l1_in_2__S mux_top_track_6.mux_l1_in_3_/S VGND VGND VPWR
+ VPWR sky130_fd_sc_hd__diode_2
XTAP_123 VGND VPWR sky130_fd_sc_hd__tapvpwrvgnd_1
XTAP_112 VGND VPWR sky130_fd_sc_hd__tapvpwrvgnd_1
XANTENNA_mux_left_track_9.mux_l2_in_2__A0 left_bottom_grid_pin_9_ VGND VGND VPWR VPWR
+ sky130_fd_sc_hd__diode_2
XTAP_101 VGND VPWR sky130_fd_sc_hd__tapvpwrvgnd_1
XFILLER_26_97 VGND VGND VPWR VPWR sky130_fd_sc_hd__decap_6
XFILLER_13_178 VGND VGND VPWR VPWR sky130_fd_sc_hd__decap_3
XANTENNA_mux_right_track_0.mux_l2_in_3__A1 chanx_left_in[12] VGND VGND VPWR VPWR sky130_fd_sc_hd__diode_2
XFILLER_9_149 VGND VGND VPWR VPWR sky130_fd_sc_hd__decap_8
XFILLER_33_218 VGND VGND VPWR VPWR sky130_fd_sc_hd__decap_4
XFILLER_12_44 VGND VGND VPWR VPWR sky130_fd_sc_hd__fill_1
XANTENNA_mem_right_track_16.sky130_fd_sc_hd__dfxtp_1_1__CLK prog_clk_0_FTB00/X VGND
+ VGND VPWR VPWR sky130_fd_sc_hd__diode_2
XANTENNA_mux_top_track_0.mux_l1_in_0__A1 top_left_grid_pin_42_ VGND VGND VPWR VPWR
+ sky130_fd_sc_hd__diode_2
Xmem_top_track_10.sky130_fd_sc_hd__dfxtp_1_2_ prog_clk_0_FTB00/X mux_top_track_10.mux_l2_in_1_/S
+ VGND VGND VPWR VPWR mux_top_track_10.mux_l3_in_0_/S sky130_fd_sc_hd__dfxtp_1
Xmem_right_track_8.sky130_fd_sc_hd__dfxtp_1_0_ prog_clk_0_FTB00/X mux_right_track_4.mux_l4_in_0_/S
+ VGND VGND VPWR VPWR mux_right_track_8.mux_l1_in_0_/S sky130_fd_sc_hd__dfxtp_1
X_061_ _061_/A VGND VGND VPWR VPWR chanx_left_out[4] sky130_fd_sc_hd__buf_2
XFILLER_2_133 VGND VGND VPWR VPWR sky130_fd_sc_hd__decap_6
XFILLER_0_69 VGND VPWR VPWR VGND sky130_ef_sc_hd__decap_12
XFILLER_2_177 VGND VPWR VPWR VGND sky130_ef_sc_hd__decap_12
Xmux_left_track_9.sky130_fd_sc_hd__buf_4_0_ mux_left_track_9.mux_l4_in_0_/X VGND VGND
+ VPWR VPWR _061_/A sky130_fd_sc_hd__buf_4
X_113_ chanx_left_in[11] VGND VGND VPWR VPWR chany_top_out[16] sky130_fd_sc_hd__buf_2
XFILLER_18_21 VGND VGND VPWR VPWR sky130_fd_sc_hd__decap_6
X_044_ VGND VGND VPWR VPWR _044_/HI _044_/LO sky130_fd_sc_hd__conb_1
XANTENNA_mem_top_track_0.sky130_fd_sc_hd__dfxtp_1_2__CLK prog_clk_0_FTB00/X VGND VGND
+ VPWR VPWR sky130_fd_sc_hd__diode_2
XFILLER_7_203 VGND VGND VPWR VPWR sky130_fd_sc_hd__fill_1
Xmux_top_track_10.mux_l2_in_0_ chanx_right_in[19] mux_top_track_10.mux_l1_in_0_/X
+ mux_top_track_10.mux_l2_in_1_/S VGND VGND VPWR VPWR mux_top_track_10.mux_l2_in_0_/X
+ sky130_fd_sc_hd__mux2_1
XFILLER_28_195 VGND VGND VPWR VPWR sky130_fd_sc_hd__fill_1
XFILLER_28_184 VGND VGND VPWR VPWR sky130_fd_sc_hd__fill_2
XANTENNA_mem_top_track_0.sky130_fd_sc_hd__dfxtp_1_0__D ccff_head VGND VGND VPWR VPWR
+ sky130_fd_sc_hd__diode_2
XFILLER_6_68 VGND VPWR VPWR VGND sky130_ef_sc_hd__decap_12
XFILLER_25_154 VGND VGND VPWR VPWR sky130_fd_sc_hd__decap_3
Xmux_right_track_8.mux_l2_in_3_ _030_/HI chanx_left_in[16] mux_right_track_8.mux_l2_in_3_/S
+ VGND VGND VPWR VPWR mux_right_track_8.mux_l2_in_3_/X sky130_fd_sc_hd__mux2_1
XTAP_179 VGND VPWR sky130_fd_sc_hd__tapvpwrvgnd_1
XTAP_168 VGND VPWR sky130_fd_sc_hd__tapvpwrvgnd_1
XTAP_157 VGND VPWR sky130_fd_sc_hd__tapvpwrvgnd_1
Xmux_left_track_25.sky130_fd_sc_hd__buf_4_0_ mux_left_track_25.mux_l3_in_0_/X VGND
+ VGND VPWR VPWR _069_/A sky130_fd_sc_hd__buf_4
XTAP_146 VGND VPWR sky130_fd_sc_hd__tapvpwrvgnd_1
XTAP_135 VGND VPWR sky130_fd_sc_hd__tapvpwrvgnd_1
XTAP_124 VGND VPWR sky130_fd_sc_hd__tapvpwrvgnd_1
XTAP_113 VGND VPWR sky130_fd_sc_hd__tapvpwrvgnd_1
XTAP_102 VGND VPWR sky130_fd_sc_hd__tapvpwrvgnd_1
Xmux_top_track_0.mux_l2_in_3_ _031_/HI chanx_left_in[2] mux_top_track_0.mux_l2_in_3_/S
+ VGND VGND VPWR VPWR mux_top_track_0.mux_l2_in_3_/X sky130_fd_sc_hd__mux2_1
XANTENNA_mux_left_track_33.mux_l1_in_1__S mux_left_track_33.mux_l1_in_2_/S VGND VGND
+ VPWR VPWR sky130_fd_sc_hd__diode_2
XFILLER_13_135 VGND VGND VPWR VPWR sky130_fd_sc_hd__fill_1
XANTENNA_mux_left_track_9.mux_l2_in_2__A1 left_bottom_grid_pin_1_ VGND VGND VPWR VPWR
+ sky130_fd_sc_hd__diode_2
XANTENNA_mux_top_track_10.mux_l2_in_0__A0 chanx_right_in[19] VGND VGND VPWR VPWR sky130_fd_sc_hd__diode_2
XFILLER_12_190 VGND VGND VPWR VPWR sky130_fd_sc_hd__decap_4
XFILLER_6_109 VGND VPWR VPWR VGND sky130_ef_sc_hd__decap_12
XANTENNA_mux_right_track_4.mux_l1_in_3__A0 right_bottom_grid_pin_9_ VGND VGND VPWR
+ VPWR sky130_fd_sc_hd__diode_2
Xmux_right_track_8.mux_l4_in_0_ mux_right_track_8.mux_l3_in_1_/X mux_right_track_8.mux_l3_in_0_/X
+ mux_right_track_8.mux_l4_in_0_/S VGND VGND VPWR VPWR mux_right_track_8.mux_l4_in_0_/X
+ sky130_fd_sc_hd__mux2_1
Xmem_top_track_10.sky130_fd_sc_hd__dfxtp_1_1_ prog_clk_0_FTB00/X mux_top_track_10.mux_l1_in_0_/S
+ VGND VGND VPWR VPWR mux_top_track_10.mux_l2_in_1_/S sky130_fd_sc_hd__dfxtp_1
Xmux_top_track_0.mux_l4_in_0_ mux_top_track_0.mux_l3_in_1_/X mux_top_track_0.mux_l3_in_0_/X
+ mux_top_track_0.mux_l4_in_0_/S VGND VGND VPWR VPWR mux_top_track_0.mux_l4_in_0_/X
+ sky130_fd_sc_hd__mux2_1
X_060_ chanx_right_in[2] VGND VGND VPWR VPWR chanx_left_out[3] sky130_fd_sc_hd__buf_2
XFILLER_0_15 VGND VPWR VPWR VGND sky130_ef_sc_hd__decap_12
XFILLER_2_189 VGND VGND VPWR VPWR sky130_fd_sc_hd__decap_6
XFILLER_3_3 VGND VPWR VPWR VGND sky130_ef_sc_hd__decap_12
XFILLER_9_13 VGND VPWR VPWR VGND sky130_ef_sc_hd__decap_12
XANTENNA_mem_left_track_3.sky130_fd_sc_hd__dfxtp_1_1__CLK prog_clk_0_FTB00/X VGND
+ VGND VPWR VPWR sky130_fd_sc_hd__diode_2
XFILLER_9_46 VGND VGND VPWR VPWR sky130_fd_sc_hd__decap_3
XFILLER_9_57 VGND VGND VPWR VPWR sky130_fd_sc_hd__decap_4
X_112_ chanx_left_in[15] VGND VGND VPWR VPWR chany_top_out[15] sky130_fd_sc_hd__buf_2
X_043_ VGND VGND VPWR VPWR _043_/HI _043_/LO sky130_fd_sc_hd__conb_1
XFILLER_11_222 VGND VGND VPWR VPWR sky130_fd_sc_hd__fill_1
Xmux_right_track_8.mux_l3_in_1_ mux_right_track_8.mux_l2_in_3_/X mux_right_track_8.mux_l2_in_2_/X
+ mux_right_track_8.mux_l3_in_1_/S VGND VGND VPWR VPWR mux_right_track_8.mux_l3_in_1_/X
+ sky130_fd_sc_hd__mux2_1
XANTENNA__056__A SC_IN_TOP VGND VGND VPWR VPWR sky130_fd_sc_hd__diode_2
XANTENNA_mem_right_track_0.sky130_fd_sc_hd__dfxtp_1_3__CLK prog_clk_0_FTB00/X VGND
+ VGND VPWR VPWR sky130_fd_sc_hd__diode_2
Xmux_top_track_0.mux_l3_in_1_ mux_top_track_0.mux_l2_in_3_/X mux_top_track_0.mux_l2_in_2_/X
+ mux_top_track_0.mux_l3_in_1_/S VGND VGND VPWR VPWR mux_top_track_0.mux_l3_in_1_/X
+ sky130_fd_sc_hd__mux2_1
XFILLER_19_152 VGND VGND VPWR VPWR sky130_fd_sc_hd__decap_8
XFILLER_15_23 VGND VGND VPWR VPWR sky130_fd_sc_hd__fill_1
Xmux_right_track_8.mux_l2_in_2_ chanx_left_in[6] right_bottom_grid_pin_17_ mux_right_track_8.mux_l2_in_3_/S
+ VGND VGND VPWR VPWR mux_right_track_8.mux_l2_in_2_/X sky130_fd_sc_hd__mux2_1
XFILLER_0_221 VGND VGND VPWR VPWR sky130_fd_sc_hd__fill_2
XTAP_169 VGND VPWR sky130_fd_sc_hd__tapvpwrvgnd_1
XTAP_158 VGND VPWR sky130_fd_sc_hd__tapvpwrvgnd_1
XTAP_147 VGND VPWR sky130_fd_sc_hd__tapvpwrvgnd_1
XTAP_136 VGND VPWR sky130_fd_sc_hd__tapvpwrvgnd_1
XTAP_125 VGND VPWR sky130_fd_sc_hd__tapvpwrvgnd_1
XANTENNA_mem_left_track_9.sky130_fd_sc_hd__dfxtp_1_3__CLK prog_clk_0_FTB00/X VGND
+ VGND VPWR VPWR sky130_fd_sc_hd__diode_2
XTAP_114 VGND VPWR sky130_fd_sc_hd__tapvpwrvgnd_1
Xmux_top_track_0.mux_l2_in_2_ chanx_left_in[0] chanx_right_in[2] mux_top_track_0.mux_l2_in_3_/S
+ VGND VGND VPWR VPWR mux_top_track_0.mux_l2_in_2_/X sky130_fd_sc_hd__mux2_1
XTAP_103 VGND VPWR sky130_fd_sc_hd__tapvpwrvgnd_1
XANTENNA_mux_top_track_2.mux_l1_in_1__A0 top_left_grid_pin_49_ VGND VGND VPWR VPWR
+ sky130_fd_sc_hd__diode_2
Xmux_top_track_22.mux_l2_in_0_ mux_top_track_22.mux_l1_in_1_/X mux_top_track_22.mux_l1_in_0_/X
+ mux_top_track_22.mux_l2_in_0_/S VGND VGND VPWR VPWR mux_top_track_22.mux_l2_in_0_/X
+ sky130_fd_sc_hd__mux2_1
XFILLER_26_22 VGND VGND VPWR VPWR sky130_fd_sc_hd__decap_6
Xmux_top_track_10.mux_l1_in_0_ chanx_right_in[9] top_left_grid_pin_43_ mux_top_track_10.mux_l1_in_0_/S
+ VGND VGND VPWR VPWR mux_top_track_10.mux_l1_in_0_/X sky130_fd_sc_hd__mux2_1
XFILLER_13_158 VGND VGND VPWR VPWR sky130_fd_sc_hd__fill_1
XANTENNA_mem_right_track_4.sky130_fd_sc_hd__dfxtp_1_0__CLK prog_clk_0_FTB00/X VGND
+ VGND VPWR VPWR sky130_fd_sc_hd__diode_2
XFILLER_12_180 VGND VGND VPWR VPWR sky130_fd_sc_hd__fill_1
XFILLER_3_15 VGND VGND VPWR VPWR sky130_fd_sc_hd__fill_1
XFILLER_3_59 VGND VPWR VPWR VGND sky130_ef_sc_hd__decap_12
XANTENNA__064__A chanx_right_in[6] VGND VGND VPWR VPWR sky130_fd_sc_hd__diode_2
XANTENNA_mux_right_track_4.mux_l1_in_3__A1 right_bottom_grid_pin_7_ VGND VGND VPWR
+ VPWR sky130_fd_sc_hd__diode_2
XFILLER_33_209 VGND VGND VPWR VPWR sky130_fd_sc_hd__decap_3
XANTENNA_mem_top_track_22.sky130_fd_sc_hd__dfxtp_1_0__CLK prog_clk_0_FTB00/X VGND
+ VGND VPWR VPWR sky130_fd_sc_hd__diode_2
XFILLER_18_206 VGND VGND VPWR VPWR sky130_fd_sc_hd__fill_1
XANTENNA_mux_top_track_2.mux_l1_in_2__S mux_top_track_2.mux_l1_in_3_/S VGND VGND VPWR
+ VPWR sky130_fd_sc_hd__diode_2
XFILLER_5_110 VGND VGND VPWR VPWR sky130_fd_sc_hd__fill_2
XANTENNA_mem_right_track_32.sky130_fd_sc_hd__dfxtp_1_2__CLK prog_clk_0_FTB00/X VGND
+ VGND VPWR VPWR sky130_fd_sc_hd__diode_2
Xprog_clk_0_FTB00 prog_clk_0_N_in VGND VGND VPWR VPWR prog_clk_0_FTB00/X sky130_fd_sc_hd__buf_8
Xmux_top_track_22.mux_l1_in_1_ _039_/HI chanx_left_in[17] mux_top_track_22.mux_l1_in_1_/S
+ VGND VGND VPWR VPWR mux_top_track_22.mux_l1_in_1_/X sky130_fd_sc_hd__mux2_1
XFILLER_23_12 VGND VPWR VPWR VGND sky130_ef_sc_hd__decap_12
Xmem_top_track_10.sky130_fd_sc_hd__dfxtp_1_0_ prog_clk_0_FTB00/X mux_top_track_8.mux_l3_in_0_/S
+ VGND VGND VPWR VPWR mux_top_track_10.mux_l1_in_0_/S sky130_fd_sc_hd__dfxtp_1
XFILLER_0_27 VGND VGND VPWR VPWR sky130_fd_sc_hd__fill_1
XFILLER_29_3 VGND VGND VPWR VPWR sky130_fd_sc_hd__decap_4
XFILLER_9_25 VGND VGND VPWR VPWR sky130_fd_sc_hd__fill_2
XANTENNA_mux_top_track_0.mux_l2_in_2__A0 chanx_left_in[0] VGND VGND VPWR VPWR sky130_fd_sc_hd__diode_2
X_111_ chanx_left_in[19] VGND VGND VPWR VPWR chany_top_out[14] sky130_fd_sc_hd__buf_2
XANTENNA_mem_top_track_14.sky130_fd_sc_hd__dfxtp_1_1__CLK prog_clk_0_FTB00/X VGND
+ VGND VPWR VPWR sky130_fd_sc_hd__diode_2
X_042_ VGND VGND VPWR VPWR _042_/HI _042_/LO sky130_fd_sc_hd__conb_1
XANTENNA__072__A chanx_right_in[14] VGND VGND VPWR VPWR sky130_fd_sc_hd__diode_2
XANTENNA_mem_left_track_25.sky130_fd_sc_hd__dfxtp_1_0__CLK prog_clk_0_FTB00/X VGND
+ VGND VPWR VPWR sky130_fd_sc_hd__diode_2
Xmux_top_track_0.mux_l3_in_0_ mux_top_track_0.mux_l2_in_1_/X mux_top_track_0.mux_l2_in_0_/X
+ mux_top_track_0.mux_l3_in_1_/S VGND VGND VPWR VPWR mux_top_track_0.mux_l3_in_0_/X
+ sky130_fd_sc_hd__mux2_1
Xmux_right_track_8.mux_l3_in_0_ mux_right_track_8.mux_l2_in_1_/X mux_right_track_8.mux_l2_in_0_/X
+ mux_right_track_8.mux_l3_in_1_/S VGND VGND VPWR VPWR mux_right_track_8.mux_l3_in_0_/X
+ sky130_fd_sc_hd__mux2_1
XFILLER_1_81 VGND VPWR VPWR VGND sky130_ef_sc_hd__decap_12
Xprog_clk_3_N_FTB01 prog_clk_3_S_in VGND VGND VPWR VPWR prog_clk_3_N_out sky130_fd_sc_hd__buf_4
XFILLER_6_26 VGND VGND VPWR VPWR sky130_fd_sc_hd__fill_2
Xmem_top_track_16.sky130_fd_sc_hd__dfxtp_1_1_ prog_clk_0_FTB00/X mux_top_track_16.mux_l1_in_1_/S
+ VGND VGND VPWR VPWR mux_top_track_16.mux_l2_in_0_/S sky130_fd_sc_hd__dfxtp_1
XFILLER_19_131 VGND VGND VPWR VPWR sky130_fd_sc_hd__fill_2
XFILLER_31_23 VGND VGND VPWR VPWR sky130_fd_sc_hd__fill_2
XANTENNA__067__A chanx_right_in[9] VGND VGND VPWR VPWR sky130_fd_sc_hd__diode_2
XFILLER_25_178 VGND VGND VPWR VPWR sky130_fd_sc_hd__decap_3
XTAP_159 VGND VPWR sky130_fd_sc_hd__tapvpwrvgnd_1
XTAP_148 VGND VPWR sky130_fd_sc_hd__tapvpwrvgnd_1
XANTENNA_mem_left_track_17.sky130_fd_sc_hd__dfxtp_1_1__CLK prog_clk_0_FTB00/X VGND
+ VGND VPWR VPWR sky130_fd_sc_hd__diode_2
XTAP_137 VGND VPWR sky130_fd_sc_hd__tapvpwrvgnd_1
Xmux_top_track_0.mux_l2_in_1_ chanx_right_in[1] top_left_grid_pin_48_ mux_top_track_0.mux_l2_in_3_/S
+ VGND VGND VPWR VPWR mux_top_track_0.mux_l2_in_1_/X sky130_fd_sc_hd__mux2_1
XTAP_126 VGND VPWR sky130_fd_sc_hd__tapvpwrvgnd_1
XTAP_115 VGND VPWR sky130_fd_sc_hd__tapvpwrvgnd_1
Xmux_right_track_8.mux_l2_in_1_ right_bottom_grid_pin_9_ right_bottom_grid_pin_1_
+ mux_right_track_8.mux_l2_in_3_/S VGND VGND VPWR VPWR mux_right_track_8.mux_l2_in_1_/X
+ sky130_fd_sc_hd__mux2_1
XFILLER_11_3 VGND VGND VPWR VPWR sky130_fd_sc_hd__decap_4
XTAP_104 VGND VPWR sky130_fd_sc_hd__tapvpwrvgnd_1
XANTENNA_mux_top_track_2.mux_l1_in_1__A1 top_left_grid_pin_47_ VGND VGND VPWR VPWR
+ sky130_fd_sc_hd__diode_2
XFILLER_30_192 VGND VGND VPWR VPWR sky130_fd_sc_hd__decap_4
XFILLER_26_12 VGND VGND VPWR VPWR sky130_fd_sc_hd__fill_1
XFILLER_22_159 VGND VPWR VPWR VGND sky130_ef_sc_hd__decap_12
XFILLER_7_91 VGND VGND VPWR VPWR sky130_fd_sc_hd__decap_4
XANTENNA_mux_left_track_1.mux_l1_in_1__A0 chanx_right_in[2] VGND VGND VPWR VPWR sky130_fd_sc_hd__diode_2
Xmux_top_track_22.sky130_fd_sc_hd__buf_4_0_ mux_top_track_22.mux_l2_in_0_/X VGND VGND
+ VPWR VPWR _108_/A sky130_fd_sc_hd__buf_4
XFILLER_8_141 VGND VPWR VPWR VGND sky130_ef_sc_hd__decap_12
XANTENNA__080__A chanx_left_in[2] VGND VGND VPWR VPWR sky130_fd_sc_hd__diode_2
XANTENNA_mux_top_track_14.mux_l1_in_0__A0 chanx_right_in[12] VGND VGND VPWR VPWR sky130_fd_sc_hd__diode_2
Xmux_top_track_22.mux_l1_in_0_ chanx_right_in[17] top_left_grid_pin_49_ mux_top_track_22.mux_l1_in_1_/S
+ VGND VGND VPWR VPWR mux_top_track_22.mux_l1_in_0_/X sky130_fd_sc_hd__mux2_1
XANTENNA__075__A chanx_right_in[17] VGND VGND VPWR VPWR sky130_fd_sc_hd__diode_2
Xmux_top_track_16.sky130_fd_sc_hd__buf_4_0_ mux_top_track_16.mux_l2_in_0_/X VGND VGND
+ VPWR VPWR _105_/A sky130_fd_sc_hd__buf_4
XFILLER_23_68 VGND VGND VPWR VPWR sky130_fd_sc_hd__decap_3
XFILLER_23_35 VGND VGND VPWR VPWR sky130_fd_sc_hd__fill_1
XFILLER_23_24 VGND VGND VPWR VPWR sky130_fd_sc_hd__fill_2
XANTENNA_mux_top_track_0.mux_l2_in_2__A1 chanx_right_in[2] VGND VGND VPWR VPWR sky130_fd_sc_hd__diode_2
X_110_ top_left_grid_pin_43_ VGND VGND VPWR VPWR chany_top_out[13] sky130_fd_sc_hd__buf_2
X_041_ VGND VGND VPWR VPWR _041_/HI _041_/LO sky130_fd_sc_hd__conb_1
XFILLER_7_206 VGND VPWR VPWR VGND sky130_ef_sc_hd__decap_12
XANTENNA_mem_top_track_2.sky130_fd_sc_hd__dfxtp_1_1__D mux_top_track_2.mux_l1_in_3_/S
+ VGND VGND VPWR VPWR sky130_fd_sc_hd__diode_2
XFILLER_1_93 VGND VPWR VPWR VGND sky130_ef_sc_hd__decap_12
XANTENNA_mem_top_track_4.sky130_fd_sc_hd__dfxtp_1_2__CLK prog_clk_0_FTB00/X VGND VGND
+ VPWR VPWR sky130_fd_sc_hd__diode_2
XFILLER_4_209 VGND VPWR VPWR VGND sky130_ef_sc_hd__decap_12
Xmem_top_track_16.sky130_fd_sc_hd__dfxtp_1_0_ prog_clk_0_FTB00/X mux_top_track_14.mux_l2_in_0_/S
+ VGND VGND VPWR VPWR mux_top_track_16.mux_l1_in_1_/S sky130_fd_sc_hd__dfxtp_1
XFILLER_6_49 VGND VGND VPWR VPWR sky130_fd_sc_hd__fill_2
Xmux_top_track_0.sky130_fd_sc_hd__buf_4_0_ mux_top_track_0.mux_l4_in_0_/X VGND VGND
+ VPWR VPWR _097_/A sky130_fd_sc_hd__buf_4
XANTENNA__083__A chanx_left_in[5] VGND VGND VPWR VPWR sky130_fd_sc_hd__diode_2
Xmux_top_track_0.mux_l2_in_0_ top_left_grid_pin_46_ mux_top_track_0.mux_l1_in_0_/X
+ mux_top_track_0.mux_l2_in_3_/S VGND VGND VPWR VPWR mux_top_track_0.mux_l2_in_0_/X
+ sky130_fd_sc_hd__mux2_1
Xmux_right_track_8.mux_l2_in_0_ chany_top_in[16] mux_right_track_8.mux_l1_in_0_/X
+ mux_right_track_8.mux_l2_in_3_/S VGND VGND VPWR VPWR mux_right_track_8.mux_l2_in_0_/X
+ sky130_fd_sc_hd__mux2_1
XFILLER_24_190 VGND VGND VPWR VPWR sky130_fd_sc_hd__decap_6
XTAP_149 VGND VPWR sky130_fd_sc_hd__tapvpwrvgnd_1
XTAP_138 VGND VPWR sky130_fd_sc_hd__tapvpwrvgnd_1
XTAP_127 VGND VPWR sky130_fd_sc_hd__tapvpwrvgnd_1
XTAP_116 VGND VPWR sky130_fd_sc_hd__tapvpwrvgnd_1
XANTENNA_mux_right_track_8.mux_l2_in_1__A0 right_bottom_grid_pin_9_ VGND VGND VPWR
+ VPWR sky130_fd_sc_hd__diode_2
XTAP_105 VGND VPWR sky130_fd_sc_hd__tapvpwrvgnd_1
XFILLER_22_127 VGND VGND VPWR VPWR sky130_fd_sc_hd__decap_8
XANTENNA_mux_left_track_1.mux_l1_in_1__A1 chany_top_in[14] VGND VGND VPWR VPWR sky130_fd_sc_hd__diode_2
XANTENNA_mux_top_track_22.mux_l1_in_0__A0 chanx_right_in[17] VGND VGND VPWR VPWR sky130_fd_sc_hd__diode_2
XFILLER_21_182 VGND VGND VPWR VPWR sky130_fd_sc_hd__fill_2
XANTENNA_mux_right_track_4.mux_l1_in_6__A0 chanx_left_in[14] VGND VGND VPWR VPWR sky130_fd_sc_hd__diode_2
XFILLER_9_109 VGND VGND VPWR VPWR sky130_fd_sc_hd__decap_3
XFILLER_8_153 VGND VPWR VPWR VGND sky130_ef_sc_hd__decap_12
XFILLER_32_222 VGND VGND VPWR VPWR sky130_fd_sc_hd__fill_1
XANTENNA_mux_top_track_14.mux_l1_in_0__A1 top_left_grid_pin_45_ VGND VGND VPWR VPWR
+ sky130_fd_sc_hd__diode_2
XFILLER_5_167 VGND VGND VPWR VPWR sky130_fd_sc_hd__fill_1
XANTENNA__091__A chanx_left_in[13] VGND VGND VPWR VPWR sky130_fd_sc_hd__diode_2
XFILLER_23_222 VGND VGND VPWR VPWR sky130_fd_sc_hd__fill_1
XFILLER_23_211 VGND VGND VPWR VPWR sky130_fd_sc_hd__fill_1
XFILLER_0_29 VGND VPWR VPWR VGND sky130_ef_sc_hd__decap_12
XANTENNA_mux_top_track_6.mux_l1_in_0__A0 top_left_grid_pin_45_ VGND VGND VPWR VPWR
+ sky130_fd_sc_hd__diode_2
XFILLER_1_181 VGND VGND VPWR VPWR sky130_fd_sc_hd__decap_8
XANTENNA_mux_top_track_2.mux_l2_in_0__S mux_top_track_2.mux_l2_in_1_/S VGND VGND VPWR
+ VPWR sky130_fd_sc_hd__diode_2
X_040_ VGND VGND VPWR VPWR _040_/HI _040_/LO sky130_fd_sc_hd__conb_1
Xmux_top_track_38.sky130_fd_sc_hd__buf_4_0_ mux_top_track_38.mux_l2_in_0_/X VGND VGND
+ VPWR VPWR _116_/A sky130_fd_sc_hd__buf_4
XANTENNA__086__A chanx_left_in[8] VGND VGND VPWR VPWR sky130_fd_sc_hd__diode_2
XFILLER_1_3 VGND VPWR VPWR VGND sky130_ef_sc_hd__decap_12
XFILLER_7_218 VGND VGND VPWR VPWR sky130_fd_sc_hd__decap_4
XFILLER_20_37 VGND VGND VPWR VPWR sky130_fd_sc_hd__decap_3
XFILLER_20_15 VGND VPWR VPWR VGND sky130_ef_sc_hd__decap_12
XANTENNA_mux_top_track_4.mux_l1_in_2__A0 chanx_right_in[7] VGND VGND VPWR VPWR sky130_fd_sc_hd__diode_2
XFILLER_19_166 VGND VGND VPWR VPWR sky130_fd_sc_hd__fill_2
XANTENNA_mem_right_track_4.sky130_fd_sc_hd__dfxtp_1_3__CLK prog_clk_0_FTB00/X VGND
+ VGND VPWR VPWR sky130_fd_sc_hd__diode_2
XFILLER_15_15 VGND VGND VPWR VPWR sky130_fd_sc_hd__decap_8
XFILLER_21_91 VGND VGND VPWR VPWR sky130_fd_sc_hd__decap_3
XFILLER_16_169 VGND VGND VPWR VPWR sky130_fd_sc_hd__fill_2
XFILLER_16_125 VGND VGND VPWR VPWR sky130_fd_sc_hd__fill_2
XANTENNA_mux_right_track_8.mux_l2_in_1__A1 right_bottom_grid_pin_1_ VGND VGND VPWR
+ VPWR sky130_fd_sc_hd__diode_2
XFILLER_30_161 VGND VGND VPWR VPWR sky130_fd_sc_hd__fill_1
XFILLER_22_139 VGND VGND VPWR VPWR sky130_fd_sc_hd__fill_1
XTAP_139 VGND VPWR sky130_fd_sc_hd__tapvpwrvgnd_1
XTAP_128 VGND VPWR sky130_fd_sc_hd__tapvpwrvgnd_1
XTAP_117 VGND VPWR sky130_fd_sc_hd__tapvpwrvgnd_1
XTAP_106 VGND VPWR sky130_fd_sc_hd__tapvpwrvgnd_1
XPHY_0 VGND VGND VPWR VPWR sky130_fd_sc_hd__decap_3
XANTENNA__094__A chanx_left_in[16] VGND VGND VPWR VPWR sky130_fd_sc_hd__diode_2
XANTENNA_mux_right_track_16.mux_l1_in_1__A0 right_bottom_grid_pin_3_ VGND VGND VPWR
+ VPWR sky130_fd_sc_hd__diode_2
XANTENNA_mem_left_track_33.sky130_fd_sc_hd__dfxtp_1_2__CLK prog_clk_0_FTB00/X VGND
+ VGND VPWR VPWR sky130_fd_sc_hd__diode_2
XANTENNA_mux_right_track_4.mux_l1_in_6__A1 chanx_left_in[5] VGND VGND VPWR VPWR sky130_fd_sc_hd__diode_2
XANTENNA_mux_top_track_22.mux_l1_in_0__A1 top_left_grid_pin_49_ VGND VGND VPWR VPWR
+ sky130_fd_sc_hd__diode_2
XFILLER_12_172 VGND VGND VPWR VPWR sky130_fd_sc_hd__decap_8
XFILLER_12_150 VGND VPWR VPWR VGND sky130_ef_sc_hd__decap_12
XFILLER_8_165 VGND VPWR VPWR VGND sky130_ef_sc_hd__decap_12
Xmux_right_track_8.mux_l1_in_0_ chany_top_in[9] chany_top_in[2] mux_right_track_8.mux_l1_in_0_/S
+ VGND VGND VPWR VPWR mux_right_track_8.mux_l1_in_0_/X sky130_fd_sc_hd__mux2_1
Xmux_top_track_0.mux_l1_in_0_ top_left_grid_pin_44_ top_left_grid_pin_42_ mux_top_track_0.mux_l1_in_0_/S
+ VGND VGND VPWR VPWR mux_top_track_0.mux_l1_in_0_/X sky130_fd_sc_hd__mux2_1
XANTENNA_mem_right_track_8.sky130_fd_sc_hd__dfxtp_1_0__CLK prog_clk_0_FTB00/X VGND
+ VGND VPWR VPWR sky130_fd_sc_hd__diode_2
XFILLER_5_102 VGND VGND VPWR VPWR sky130_fd_sc_hd__decap_8
XFILLER_5_113 VGND VPWR VPWR VGND sky130_ef_sc_hd__decap_12
XFILLER_4_72 VGND VPWR VPWR VGND sky130_ef_sc_hd__decap_12
Xmux_right_track_8.sky130_fd_sc_hd__buf_4_0_ mux_right_track_8.mux_l4_in_0_/X VGND
+ VGND VPWR VPWR _081_/A sky130_fd_sc_hd__buf_4
XANTENNA_mux_top_track_6.mux_l1_in_0__A1 top_left_grid_pin_43_ VGND VGND VPWR VPWR
+ sky130_fd_sc_hd__diode_2
XFILLER_20_215 VGND VGND VPWR VPWR sky130_fd_sc_hd__decap_8
XANTENNA_mux_left_track_5.mux_l1_in_0__A0 chany_top_in[12] VGND VGND VPWR VPWR sky130_fd_sc_hd__diode_2
X_099_ _099_/A VGND VGND VPWR VPWR chany_top_out[2] sky130_fd_sc_hd__buf_2
XFILLER_27_3 VGND VGND VPWR VPWR sky130_fd_sc_hd__decap_3
XANTENNA_mem_top_track_18.sky130_fd_sc_hd__dfxtp_1_1__CLK prog_clk_0_FTB00/X VGND
+ VGND VPWR VPWR sky130_fd_sc_hd__diode_2
XFILLER_20_27 VGND VGND VPWR VPWR sky130_fd_sc_hd__fill_1
XANTENNA_mux_top_track_4.mux_l1_in_2__A1 chanx_right_in[5] VGND VGND VPWR VPWR sky130_fd_sc_hd__diode_2
XFILLER_1_51 VGND VGND VPWR VPWR sky130_fd_sc_hd__decap_4
XFILLER_1_40 VGND VGND VPWR VPWR sky130_fd_sc_hd__decap_3
XFILLER_19_189 VGND VGND VPWR VPWR sky130_fd_sc_hd__fill_1
XFILLER_10_82 VGND VGND VPWR VPWR sky130_fd_sc_hd__fill_2
XFILLER_6_29 VGND VPWR VPWR VGND sky130_ef_sc_hd__decap_12
XFILLER_33_181 VGND VGND VPWR VPWR sky130_fd_sc_hd__fill_1
Xmux_right_track_32.sky130_fd_sc_hd__buf_4_0_ mux_right_track_32.mux_l3_in_0_/X VGND
+ VGND VPWR VPWR _093_/A sky130_fd_sc_hd__buf_4
XANTENNA_mux_right_track_24.mux_l1_in_1__A0 right_bottom_grid_pin_5_ VGND VGND VPWR
+ VPWR sky130_fd_sc_hd__diode_2
XFILLER_31_15 VGND VGND VPWR VPWR sky130_fd_sc_hd__decap_8
Xmux_right_track_4.mux_l1_in_6_ chanx_left_in[14] chanx_left_in[5] mux_right_track_4.mux_l1_in_6_/S
+ VGND VGND VPWR VPWR mux_right_track_4.mux_l1_in_6_/X sky130_fd_sc_hd__mux2_1
XFILLER_30_184 VGND VGND VPWR VPWR sky130_fd_sc_hd__fill_2
XTAP_129 VGND VPWR sky130_fd_sc_hd__tapvpwrvgnd_1
XTAP_118 VGND VPWR sky130_fd_sc_hd__tapvpwrvgnd_1
XTAP_107 VGND VPWR sky130_fd_sc_hd__tapvpwrvgnd_1