* NGSPICE file created from sb_1__0_.ext - technology: sky130A

* Black-box entry subcircuit for sky130_fd_sc_hd__tapvpwrvgnd_1 abstract view
.subckt sky130_fd_sc_hd__tapvpwrvgnd_1 VGND VPWR
.ends

* Black-box entry subcircuit for sky130_fd_sc_hd__decap_3 abstract view
.subckt sky130_fd_sc_hd__decap_3 VGND VNB VPB VPWR
.ends

* Black-box entry subcircuit for sky130_fd_sc_hd__dfxtp_1 abstract view
.subckt sky130_fd_sc_hd__dfxtp_1 CLK D VGND VNB VPB VPWR Q
.ends

* Black-box entry subcircuit for sky130_fd_sc_hd__diode_2 abstract view
.subckt sky130_fd_sc_hd__diode_2 DIODE VGND VNB VPB VPWR
.ends

* Black-box entry subcircuit for sky130_ef_sc_hd__decap_12 abstract view
.subckt sky130_ef_sc_hd__decap_12 VGND VPWR VPB VNB
.ends

* Black-box entry subcircuit for sky130_fd_sc_hd__conb_1 abstract view
.subckt sky130_fd_sc_hd__conb_1 VGND VNB VPB VPWR HI LO
.ends

* Black-box entry subcircuit for sky130_fd_sc_hd__fill_2 abstract view
.subckt sky130_fd_sc_hd__fill_2 VGND VNB VPB VPWR
.ends

* Black-box entry subcircuit for sky130_fd_sc_hd__decap_8 abstract view
.subckt sky130_fd_sc_hd__decap_8 VGND VNB VPB VPWR
.ends

* Black-box entry subcircuit for sky130_fd_sc_hd__decap_6 abstract view
.subckt sky130_fd_sc_hd__decap_6 VGND VNB VPB VPWR
.ends

* Black-box entry subcircuit for sky130_fd_sc_hd__fill_1 abstract view
.subckt sky130_fd_sc_hd__fill_1 VGND VNB VPB VPWR
.ends

* Black-box entry subcircuit for sky130_fd_sc_hd__clkbuf_1 abstract view
.subckt sky130_fd_sc_hd__clkbuf_1 A VGND VNB VPB VPWR X
.ends

* Black-box entry subcircuit for sky130_fd_sc_hd__mux2_1 abstract view
.subckt sky130_fd_sc_hd__mux2_1 A0 A1 S VGND VNB VPB VPWR X
.ends

* Black-box entry subcircuit for sky130_fd_sc_hd__dfxtp_2 abstract view
.subckt sky130_fd_sc_hd__dfxtp_2 CLK D VGND VNB VPB VPWR Q
.ends

* Black-box entry subcircuit for sky130_fd_sc_hd__decap_4 abstract view
.subckt sky130_fd_sc_hd__decap_4 VGND VNB VPB VPWR
.ends

* Black-box entry subcircuit for sky130_fd_sc_hd__buf_2 abstract view
.subckt sky130_fd_sc_hd__buf_2 A VGND VNB VPB VPWR X
.ends

* Black-box entry subcircuit for sky130_fd_sc_hd__dlymetal6s2s_1 abstract view
.subckt sky130_fd_sc_hd__dlymetal6s2s_1 A VGND VNB VPB VPWR X
.ends

* Black-box entry subcircuit for sky130_fd_sc_hd__buf_8 abstract view
.subckt sky130_fd_sc_hd__buf_8 A VGND VNB VPB VPWR X
.ends

* Black-box entry subcircuit for sky130_fd_sc_hd__clkbuf_2 abstract view
.subckt sky130_fd_sc_hd__clkbuf_2 A VGND VNB VPB VPWR X
.ends

* Black-box entry subcircuit for sky130_fd_sc_hd__dlygate4sd3_1 abstract view
.subckt sky130_fd_sc_hd__dlygate4sd3_1 A VGND VNB VPB VPWR X
.ends

.subckt sb_1__0_ SC_IN_TOP SC_OUT_TOP Test_en_N_out Test_en_S_in VGND VPWR ccff_head
+ ccff_tail chanx_left_in[0] chanx_left_in[10] chanx_left_in[11] chanx_left_in[12]
+ chanx_left_in[13] chanx_left_in[14] chanx_left_in[15] chanx_left_in[16] chanx_left_in[17]
+ chanx_left_in[18] chanx_left_in[19] chanx_left_in[1] chanx_left_in[2] chanx_left_in[3]
+ chanx_left_in[4] chanx_left_in[5] chanx_left_in[6] chanx_left_in[7] chanx_left_in[8]
+ chanx_left_in[9] chanx_left_out[0] chanx_left_out[10] chanx_left_out[11] chanx_left_out[12]
+ chanx_left_out[13] chanx_left_out[14] chanx_left_out[15] chanx_left_out[16] chanx_left_out[17]
+ chanx_left_out[18] chanx_left_out[19] chanx_left_out[1] chanx_left_out[2] chanx_left_out[3]
+ chanx_left_out[4] chanx_left_out[5] chanx_left_out[6] chanx_left_out[7] chanx_left_out[8]
+ chanx_left_out[9] chanx_right_in[0] chanx_right_in[10] chanx_right_in[11] chanx_right_in[12]
+ chanx_right_in[13] chanx_right_in[14] chanx_right_in[15] chanx_right_in[16] chanx_right_in[17]
+ chanx_right_in[18] chanx_right_in[19] chanx_right_in[1] chanx_right_in[2] chanx_right_in[3]
+ chanx_right_in[4] chanx_right_in[5] chanx_right_in[6] chanx_right_in[7] chanx_right_in[8]
+ chanx_right_in[9] chanx_right_out[0] chanx_right_out[10] chanx_right_out[11] chanx_right_out[12]
+ chanx_right_out[13] chanx_right_out[14] chanx_right_out[15] chanx_right_out[16]
+ chanx_right_out[17] chanx_right_out[18] chanx_right_out[19] chanx_right_out[1] chanx_right_out[2]
+ chanx_right_out[3] chanx_right_out[4] chanx_right_out[5] chanx_right_out[6] chanx_right_out[7]
+ chanx_right_out[8] chanx_right_out[9] chany_top_in[0] chany_top_in[10] chany_top_in[11]
+ chany_top_in[12] chany_top_in[13] chany_top_in[14] chany_top_in[15] chany_top_in[16]
+ chany_top_in[17] chany_top_in[18] chany_top_in[19] chany_top_in[1] chany_top_in[2]
+ chany_top_in[3] chany_top_in[4] chany_top_in[5] chany_top_in[6] chany_top_in[7]
+ chany_top_in[8] chany_top_in[9] chany_top_out[0] chany_top_out[10] chany_top_out[11]
+ chany_top_out[12] chany_top_out[13] chany_top_out[14] chany_top_out[15] chany_top_out[16]
+ chany_top_out[17] chany_top_out[18] chany_top_out[19] chany_top_out[1] chany_top_out[2]
+ chany_top_out[3] chany_top_out[4] chany_top_out[5] chany_top_out[6] chany_top_out[7]
+ chany_top_out[8] chany_top_out[9] clk_3_N_out clk_3_S_in left_bottom_grid_pin_11_
+ left_bottom_grid_pin_13_ left_bottom_grid_pin_15_ left_bottom_grid_pin_17_ left_bottom_grid_pin_1_
+ left_bottom_grid_pin_3_ left_bottom_grid_pin_5_ left_bottom_grid_pin_7_ left_bottom_grid_pin_9_
+ prog_clk_0_N_in prog_clk_3_N_out prog_clk_3_S_in right_bottom_grid_pin_11_ right_bottom_grid_pin_13_
+ right_bottom_grid_pin_15_ right_bottom_grid_pin_17_ right_bottom_grid_pin_1_ right_bottom_grid_pin_3_
+ right_bottom_grid_pin_5_ right_bottom_grid_pin_7_ right_bottom_grid_pin_9_ top_left_grid_pin_42_
+ top_left_grid_pin_43_ top_left_grid_pin_44_ top_left_grid_pin_45_ top_left_grid_pin_46_
+ top_left_grid_pin_47_ top_left_grid_pin_48_ top_left_grid_pin_49_
XTAP_188 VGND VPWR sky130_fd_sc_hd__tapvpwrvgnd_1
XTAP_177 VGND VPWR sky130_fd_sc_hd__tapvpwrvgnd_1
XFILLER_22_188 VGND VGND VPWR VPWR sky130_fd_sc_hd__decap_3
Xmem_right_track_2.sky130_fd_sc_hd__dfxtp_1_0_ prog_clk_0_FTB00/X mux_right_track_0.mux_l4_in_0_/S
+ VGND VGND VPWR VPWR mux_right_track_2.mux_l1_in_1_/S sky130_fd_sc_hd__dfxtp_1
XANTENNA_mem_right_track_0.sky130_fd_sc_hd__dfxtp_1_0__CLK prog_clk_0_FTB00/X VGND
+ VGND VPWR VPWR sky130_fd_sc_hd__diode_2
XFILLER_26_85 VGND VGND VPWR VPWR sky130_fd_sc_hd__decap_3
Xmem_left_track_17.sky130_fd_sc_hd__dfxtp_1_0_ prog_clk_0_FTB00/X mux_left_track_9.mux_l4_in_0_/S
+ VGND VGND VPWR VPWR mux_left_track_17.mux_l1_in_3_/S sky130_fd_sc_hd__dfxtp_1
XFILLER_3_12 VGND VPWR VPWR VGND sky130_ef_sc_hd__decap_12
XFILLER_9_137 VGND VPWR VPWR VGND sky130_ef_sc_hd__decap_12
Xmux_left_track_17.mux_l1_in_3__179 VGND VGND VPWR VPWR mux_left_track_17.mux_l1_in_3_/A0
+ mux_left_track_17.mux_l1_in_3__179/LO sky130_fd_sc_hd__conb_1
Xmux_right_track_4.mux_l2_in_3__162 VGND VGND VPWR VPWR mux_right_track_4.mux_l2_in_3_/A0
+ mux_right_track_4.mux_l2_in_3__162/LO sky130_fd_sc_hd__conb_1
XFILLER_10_136 VGND VGND VPWR VPWR sky130_fd_sc_hd__fill_2
XFILLER_10_125 VGND VGND VPWR VPWR sky130_fd_sc_hd__decap_8
XFILLER_24_217 VGND VGND VPWR VPWR sky130_fd_sc_hd__fill_2
XANTENNA_mem_left_track_9.sky130_fd_sc_hd__dfxtp_1_0__CLK prog_clk_0_FTB00/X VGND
+ VGND VPWR VPWR sky130_fd_sc_hd__diode_2
XFILLER_23_86 VGND VGND VPWR VPWR sky130_fd_sc_hd__decap_6
XFILLER_23_53 VGND VGND VPWR VPWR sky130_fd_sc_hd__fill_1
X_062_ _062_/A VGND VGND VPWR VPWR _062_/X sky130_fd_sc_hd__clkbuf_1
XANTENNA_input55_A chany_top_in[1] VGND VGND VPWR VPWR sky130_fd_sc_hd__diode_2
Xmux_top_track_10.mux_l3_in_0_ mux_top_track_10.mux_l2_in_1_/X mux_top_track_10.mux_l2_in_0_/X
+ mux_top_track_10.mux_l3_in_0_/S VGND VGND VPWR VPWR mux_top_track_10.mux_l3_in_0_/X
+ sky130_fd_sc_hd__mux2_1
XANTENNA_mem_top_track_10.sky130_fd_sc_hd__dfxtp_1_1__CLK prog_clk_0_FTB00/X VGND
+ VGND VPWR VPWR sky130_fd_sc_hd__diode_2
Xmem_right_track_8.sky130_fd_sc_hd__dfxtp_1_1_ prog_clk_0_FTB00/X mux_right_track_8.mux_l1_in_0_/S
+ VGND VGND VPWR VPWR mux_right_track_8.mux_l2_in_3_/S sky130_fd_sc_hd__dfxtp_2
XFILLER_0_79 VGND VGND VPWR VPWR sky130_fd_sc_hd__decap_4
XFILLER_0_57 VGND VGND VPWR VPWR sky130_fd_sc_hd__decap_6
XFILLER_2_121 VGND VPWR VPWR VGND sky130_ef_sc_hd__decap_12
XFILLER_2_165 VGND VPWR VPWR VGND sky130_ef_sc_hd__decap_12
X_114_ _114_/A VGND VGND VPWR VPWR _114_/X sky130_fd_sc_hd__clkbuf_1
Xmux_top_track_10.mux_l2_in_1_ mux_top_track_10.mux_l2_in_1_/A0 _087_/A mux_top_track_10.mux_l2_in_1_/S
+ VGND VGND VPWR VPWR mux_top_track_10.mux_l2_in_1_/X sky130_fd_sc_hd__mux2_1
XANTENNA_input18_A chanx_left_in[4] VGND VGND VPWR VPWR sky130_fd_sc_hd__diode_2
XFILLER_26_109 VGND VGND VPWR VPWR sky130_fd_sc_hd__decap_6
Xoutput97 _068_/X VGND VGND VPWR VPWR chanx_left_out[11] sky130_fd_sc_hd__buf_2
XFILLER_16_175 VGND VGND VPWR VPWR sky130_fd_sc_hd__fill_1
XTAP_189 VGND VPWR sky130_fd_sc_hd__tapvpwrvgnd_1
XTAP_178 VGND VPWR sky130_fd_sc_hd__tapvpwrvgnd_1
XANTENNA_mem_right_track_24.sky130_fd_sc_hd__dfxtp_1_0__CLK prog_clk_0_FTB00/X VGND
+ VGND VPWR VPWR sky130_fd_sc_hd__diode_2
XTAP_167 VGND VPWR sky130_fd_sc_hd__tapvpwrvgnd_1
XTAP_156 VGND VPWR sky130_fd_sc_hd__tapvpwrvgnd_1
XTAP_145 VGND VPWR sky130_fd_sc_hd__tapvpwrvgnd_1
XTAP_134 VGND VPWR sky130_fd_sc_hd__tapvpwrvgnd_1
XTAP_123 VGND VPWR sky130_fd_sc_hd__tapvpwrvgnd_1
XTAP_112 VGND VPWR sky130_fd_sc_hd__tapvpwrvgnd_1
XTAP_101 VGND VPWR sky130_fd_sc_hd__tapvpwrvgnd_1
XANTENNA_input85_A top_left_grid_pin_43_ VGND VGND VPWR VPWR sky130_fd_sc_hd__diode_2
XFILLER_13_167 VGND VGND VPWR VPWR sky130_fd_sc_hd__fill_1
XANTENNA_mux_right_track_0.mux_l2_in_3__A1 _090_/A VGND VGND VPWR VPWR sky130_fd_sc_hd__diode_2
XFILLER_3_24 VGND VPWR VPWR VGND sky130_ef_sc_hd__decap_12
XFILLER_3_57 VGND VPWR VPWR VGND sky130_ef_sc_hd__decap_12
XFILLER_9_149 VGND VPWR VPWR VGND sky130_ef_sc_hd__decap_12
XFILLER_10_159 VGND VGND VPWR VPWR sky130_fd_sc_hd__decap_6
XANTENNA_mem_right_track_16.sky130_fd_sc_hd__dfxtp_1_1__CLK prog_clk_0_FTB00/X VGND
+ VGND VPWR VPWR sky130_fd_sc_hd__diode_2
XFILLER_15_218 VGND VGND VPWR VPWR sky130_fd_sc_hd__fill_1
XANTENNA_input48_A chany_top_in[13] VGND VGND VPWR VPWR sky130_fd_sc_hd__diode_2
Xmem_top_track_10.sky130_fd_sc_hd__dfxtp_1_2_ prog_clk_0_FTB00/X mux_top_track_10.mux_l2_in_1_/S
+ VGND VGND VPWR VPWR mux_top_track_10.mux_l3_in_0_/S sky130_fd_sc_hd__dfxtp_1
X_061_ _061_/A VGND VGND VPWR VPWR _061_/X sky130_fd_sc_hd__clkbuf_1
Xmem_right_track_8.sky130_fd_sc_hd__dfxtp_1_0_ prog_clk_0_FTB00/X mux_right_track_4.mux_l4_in_0_/S
+ VGND VGND VPWR VPWR mux_right_track_8.mux_l1_in_0_/S sky130_fd_sc_hd__dfxtp_1
XFILLER_2_133 VGND VGND VPWR VPWR sky130_fd_sc_hd__decap_6
XFILLER_2_177 VGND VPWR VPWR VGND sky130_ef_sc_hd__decap_12
Xmux_left_track_9.sky130_fd_sc_hd__buf_4_0_ mux_left_track_9.mux_l4_in_0_/X VGND VGND
+ VPWR VPWR _061_/A sky130_fd_sc_hd__clkbuf_1
X_113_ _113_/A VGND VGND VPWR VPWR _113_/X sky130_fd_sc_hd__clkbuf_1
XANTENNA_mem_top_track_0.sky130_fd_sc_hd__dfxtp_1_2__CLK prog_clk_0_FTB00/X VGND VGND
+ VPWR VPWR sky130_fd_sc_hd__diode_2
XFILLER_29_53 VGND VGND VPWR VPWR sky130_fd_sc_hd__fill_1
Xmux_top_track_10.mux_l2_in_0_ input34/X mux_top_track_10.mux_l1_in_0_/X mux_top_track_10.mux_l2_in_1_/S
+ VGND VGND VPWR VPWR mux_top_track_10.mux_l2_in_0_/X sky130_fd_sc_hd__mux2_1
XFILLER_28_195 VGND VGND VPWR VPWR sky130_fd_sc_hd__fill_1
XFILLER_25_154 VGND VPWR VPWR VGND sky130_ef_sc_hd__decap_12
XFILLER_15_22 VGND VGND VPWR VPWR sky130_fd_sc_hd__decap_3
Xoutput98 _069_/X VGND VGND VPWR VPWR chanx_left_out[12] sky130_fd_sc_hd__buf_2
Xmux_right_track_8.mux_l2_in_3_ mux_right_track_8.mux_l2_in_3_/A0 _094_/A mux_right_track_8.mux_l2_in_3_/S
+ VGND VGND VPWR VPWR mux_right_track_8.mux_l2_in_3_/X sky130_fd_sc_hd__mux2_1
XANTENNA_input30_A chanx_right_in[15] VGND VGND VPWR VPWR sky130_fd_sc_hd__diode_2
XTAP_179 VGND VPWR sky130_fd_sc_hd__tapvpwrvgnd_1
XFILLER_30_190 VGND VGND VPWR VPWR sky130_fd_sc_hd__decap_6
XTAP_168 VGND VPWR sky130_fd_sc_hd__tapvpwrvgnd_1
Xmux_left_track_25.sky130_fd_sc_hd__buf_4_0_ mux_left_track_25.mux_l3_in_0_/X VGND
+ VGND VPWR VPWR _069_/A sky130_fd_sc_hd__clkbuf_1
XTAP_157 VGND VPWR sky130_fd_sc_hd__tapvpwrvgnd_1
XFILLER_22_157 VGND VGND VPWR VPWR sky130_fd_sc_hd__decap_6
XTAP_146 VGND VPWR sky130_fd_sc_hd__tapvpwrvgnd_1
XTAP_135 VGND VPWR sky130_fd_sc_hd__tapvpwrvgnd_1
XTAP_124 VGND VPWR sky130_fd_sc_hd__tapvpwrvgnd_1
XTAP_113 VGND VPWR sky130_fd_sc_hd__tapvpwrvgnd_1
XTAP_102 VGND VPWR sky130_fd_sc_hd__tapvpwrvgnd_1
Xmux_top_track_0.mux_l2_in_3_ mux_top_track_0.mux_l2_in_3_/A0 _080_/A mux_top_track_0.mux_l2_in_3_/S
+ VGND VGND VPWR VPWR mux_top_track_0.mux_l2_in_3_/X sky130_fd_sc_hd__mux2_1
XFILLER_13_113 VGND VPWR VPWR VGND sky130_ef_sc_hd__decap_12
XANTENNA_input78_A right_bottom_grid_pin_17_ VGND VGND VPWR VPWR sky130_fd_sc_hd__diode_2
XFILLER_3_36 VGND VPWR VPWR VGND sky130_ef_sc_hd__decap_12
XFILLER_3_69 VGND VPWR VPWR VGND sky130_ef_sc_hd__decap_12
XFILLER_27_205 VGND VPWR VPWR VGND sky130_ef_sc_hd__decap_12
XFILLER_6_109 VGND VPWR VPWR VGND sky130_ef_sc_hd__decap_12
Xmux_right_track_8.mux_l4_in_0_ mux_right_track_8.mux_l3_in_1_/X mux_right_track_8.mux_l3_in_0_/X
+ mux_right_track_8.mux_l4_in_0_/S VGND VGND VPWR VPWR mux_right_track_8.mux_l4_in_0_/X
+ sky130_fd_sc_hd__mux2_1
Xmem_top_track_10.sky130_fd_sc_hd__dfxtp_1_1_ prog_clk_0_FTB00/X mux_top_track_10.mux_l1_in_0_/S
+ VGND VGND VPWR VPWR mux_top_track_10.mux_l2_in_1_/S sky130_fd_sc_hd__dfxtp_1
XFILLER_23_22 VGND VGND VPWR VPWR sky130_fd_sc_hd__decap_8
X_060_ _060_/A VGND VGND VPWR VPWR _060_/X sky130_fd_sc_hd__clkbuf_1
Xmux_top_track_0.mux_l4_in_0_ mux_top_track_0.mux_l3_in_1_/X mux_top_track_0.mux_l3_in_0_/X
+ hold1/A VGND VGND VPWR VPWR mux_top_track_0.mux_l4_in_0_/X sky130_fd_sc_hd__mux2_1
XFILLER_2_189 VGND VGND VPWR VPWR sky130_fd_sc_hd__decap_6
XFILLER_9_13 VGND VGND VPWR VPWR sky130_fd_sc_hd__fill_1
XFILLER_20_200 VGND VPWR VPWR VGND sky130_ef_sc_hd__decap_12
XANTENNA_mem_left_track_3.sky130_fd_sc_hd__dfxtp_1_1__CLK prog_clk_0_FTB00/X VGND
+ VGND VPWR VPWR sky130_fd_sc_hd__diode_2
XFILLER_9_57 VGND VPWR VPWR VGND sky130_ef_sc_hd__decap_12
X_112_ _112_/A VGND VGND VPWR VPWR _112_/X sky130_fd_sc_hd__clkbuf_1
XFILLER_18_33 VGND VGND VPWR VPWR sky130_fd_sc_hd__decap_3
XANTENNA_input60_A chany_top_in[6] VGND VGND VPWR VPWR sky130_fd_sc_hd__diode_2
Xmux_top_track_10.mux_l2_in_1__165 VGND VGND VPWR VPWR mux_top_track_10.mux_l2_in_1_/A0
+ mux_top_track_10.mux_l2_in_1__165/LO sky130_fd_sc_hd__conb_1
Xmux_right_track_8.mux_l3_in_1_ mux_right_track_8.mux_l2_in_3_/X mux_right_track_8.mux_l2_in_2_/X
+ mux_right_track_8.mux_l3_in_1_/S VGND VGND VPWR VPWR mux_right_track_8.mux_l3_in_1_/X
+ sky130_fd_sc_hd__mux2_1
XANTENNA_mem_right_track_0.sky130_fd_sc_hd__dfxtp_1_3__CLK prog_clk_0_FTB00/X VGND
+ VGND VPWR VPWR sky130_fd_sc_hd__diode_2
Xmux_top_track_0.mux_l3_in_1_ mux_top_track_0.mux_l2_in_3_/X mux_top_track_0.mux_l2_in_2_/X
+ mux_top_track_0.mux_l3_in_1_/S VGND VGND VPWR VPWR mux_top_track_0.mux_l3_in_1_/X
+ sky130_fd_sc_hd__mux2_1
XFILLER_29_43 VGND VGND VPWR VPWR sky130_fd_sc_hd__decap_4
XFILLER_28_141 VGND VGND VPWR VPWR sky130_fd_sc_hd__fill_1
XFILLER_6_25 VGND VGND VPWR VPWR sky130_fd_sc_hd__decap_3
XFILLER_6_47 VGND VPWR VPWR VGND sky130_ef_sc_hd__decap_12
XFILLER_19_196 VGND VGND VPWR VPWR sky130_fd_sc_hd__decap_6
Xoutput99 _070_/X VGND VGND VPWR VPWR chanx_left_out[13] sky130_fd_sc_hd__buf_2
Xmux_right_track_8.mux_l2_in_2_ _084_/A input78/X mux_right_track_8.mux_l2_in_3_/S
+ VGND VGND VPWR VPWR mux_right_track_8.mux_l2_in_2_/X sky130_fd_sc_hd__mux2_1
XANTENNA_input23_A chanx_left_in[9] VGND VGND VPWR VPWR sky130_fd_sc_hd__diode_2
XFILLER_31_169 VGND VGND VPWR VPWR sky130_fd_sc_hd__fill_1
XTAP_169 VGND VPWR sky130_fd_sc_hd__tapvpwrvgnd_1
XTAP_158 VGND VPWR sky130_fd_sc_hd__tapvpwrvgnd_1
XTAP_147 VGND VPWR sky130_fd_sc_hd__tapvpwrvgnd_1
XANTENNA_mem_left_track_9.sky130_fd_sc_hd__dfxtp_1_3__CLK prog_clk_0_FTB00/X VGND
+ VGND VPWR VPWR sky130_fd_sc_hd__diode_2
XTAP_136 VGND VPWR sky130_fd_sc_hd__tapvpwrvgnd_1
XTAP_125 VGND VPWR sky130_fd_sc_hd__tapvpwrvgnd_1
XTAP_114 VGND VPWR sky130_fd_sc_hd__tapvpwrvgnd_1
Xmux_top_track_0.mux_l2_in_2_ input4/X _060_/A mux_top_track_0.mux_l2_in_3_/S VGND
+ VGND VPWR VPWR mux_top_track_0.mux_l2_in_2_/X sky130_fd_sc_hd__mux2_1
XTAP_103 VGND VPWR sky130_fd_sc_hd__tapvpwrvgnd_1
Xmux_top_track_22.mux_l2_in_0_ mux_top_track_22.mux_l1_in_1_/X mux_top_track_22.mux_l1_in_0_/X
+ mux_top_track_22.mux_l2_in_0_/S VGND VGND VPWR VPWR mux_top_track_22.mux_l2_in_0_/X
+ sky130_fd_sc_hd__mux2_1
Xmux_top_track_10.mux_l1_in_0_ _067_/A _110_/A mux_top_track_10.mux_l1_in_0_/S VGND
+ VGND VPWR VPWR mux_top_track_10.mux_l1_in_0_/X sky130_fd_sc_hd__mux2_1
Xrepeater160 repeater160/A VGND VGND VPWR VPWR repeater160/X sky130_fd_sc_hd__dlymetal6s2s_1
XFILLER_13_169 VGND VGND VPWR VPWR sky130_fd_sc_hd__fill_2
XFILLER_13_125 VGND VPWR VPWR VGND sky130_ef_sc_hd__decap_12
XANTENNA_mem_right_track_4.sky130_fd_sc_hd__dfxtp_1_0__CLK prog_clk_0_FTB00/X VGND
+ VGND VPWR VPWR sky130_fd_sc_hd__diode_2
XFILLER_3_48 VGND VGND VPWR VPWR sky130_fd_sc_hd__decap_8
XFILLER_8_195 VGND VGND VPWR VPWR sky130_fd_sc_hd__fill_1
XFILLER_27_217 VGND VGND VPWR VPWR sky130_fd_sc_hd__fill_2
XANTENNA__064__A _064_/A VGND VGND VPWR VPWR sky130_fd_sc_hd__diode_2
XFILLER_12_13 VGND VGND VPWR VPWR sky130_fd_sc_hd__fill_1
XANTENNA_mem_top_track_22.sky130_fd_sc_hd__dfxtp_1_0__CLK prog_clk_0_FTB00/X VGND
+ VGND VPWR VPWR sky130_fd_sc_hd__diode_2
XANTENNA_input90_A top_left_grid_pin_48_ VGND VGND VPWR VPWR sky130_fd_sc_hd__diode_2
XFILLER_24_209 VGND VGND VPWR VPWR sky130_fd_sc_hd__decap_3
XANTENNA_mem_right_track_32.sky130_fd_sc_hd__dfxtp_1_2__CLK prog_clk_0_FTB00/X VGND
+ VGND VPWR VPWR sky130_fd_sc_hd__diode_2
Xmux_top_track_22.mux_l1_in_1_ mux_top_track_22.mux_l1_in_1_/A0 _095_/A mux_top_track_22.mux_l1_in_1_/S
+ VGND VGND VPWR VPWR mux_top_track_22.mux_l1_in_1_/X sky130_fd_sc_hd__mux2_1
Xprog_clk_0_FTB00 prog_clk_0_N_in VGND VGND VPWR VPWR prog_clk_0_FTB00/X sky130_fd_sc_hd__buf_8
Xmem_top_track_10.sky130_fd_sc_hd__dfxtp_1_0_ prog_clk_0_FTB00/X mux_top_track_8.mux_l3_in_0_/S
+ VGND VGND VPWR VPWR mux_top_track_10.mux_l1_in_0_/S sky130_fd_sc_hd__dfxtp_1
XFILLER_9_69 VGND VGND VPWR VPWR sky130_fd_sc_hd__decap_8
XFILLER_18_45 VGND VGND VPWR VPWR sky130_fd_sc_hd__decap_8
X_111_ _111_/A VGND VGND VPWR VPWR _111_/X sky130_fd_sc_hd__clkbuf_1
XANTENNA_input53_A chany_top_in[18] VGND VGND VPWR VPWR sky130_fd_sc_hd__diode_2
XANTENNA_mem_top_track_14.sky130_fd_sc_hd__dfxtp_1_1__CLK prog_clk_0_FTB00/X VGND
+ VGND VPWR VPWR sky130_fd_sc_hd__diode_2
XFILLER_7_205 VGND VGND VPWR VPWR sky130_fd_sc_hd__decap_6
XANTENNA__072__A _072_/A VGND VGND VPWR VPWR sky130_fd_sc_hd__diode_2
XANTENNA_mem_left_track_25.sky130_fd_sc_hd__dfxtp_1_0__CLK prog_clk_0_FTB00/X VGND
+ VGND VPWR VPWR sky130_fd_sc_hd__diode_2
Xmux_right_track_8.mux_l3_in_0_ mux_right_track_8.mux_l2_in_1_/X mux_right_track_8.mux_l2_in_0_/X
+ mux_right_track_8.mux_l3_in_1_/S VGND VGND VPWR VPWR mux_right_track_8.mux_l3_in_0_/X
+ sky130_fd_sc_hd__mux2_1
XFILLER_20_13 VGND VPWR VPWR VGND sky130_ef_sc_hd__decap_12
Xmux_top_track_0.mux_l3_in_0_ mux_top_track_0.mux_l2_in_1_/X mux_top_track_0.mux_l2_in_0_/X
+ mux_top_track_0.mux_l3_in_1_/S VGND VGND VPWR VPWR mux_top_track_0.mux_l3_in_0_/X
+ sky130_fd_sc_hd__mux2_1
XFILLER_1_81 VGND VGND VPWR VPWR sky130_fd_sc_hd__decap_4
XFILLER_29_33 VGND VGND VPWR VPWR sky130_fd_sc_hd__decap_4
XFILLER_29_22 VGND VGND VPWR VPWR sky130_fd_sc_hd__fill_1
XFILLER_28_197 VGND VGND VPWR VPWR sky130_fd_sc_hd__decap_6
XFILLER_28_164 VGND VGND VPWR VPWR sky130_fd_sc_hd__fill_1
Xprog_clk_3_N_FTB01 input74/X VGND VGND VPWR VPWR output156/A sky130_fd_sc_hd__clkbuf_1
XFILLER_6_37 VGND VGND VPWR VPWR sky130_fd_sc_hd__fill_1
XFILLER_6_59 VGND VPWR VPWR VGND sky130_ef_sc_hd__decap_12
Xmem_top_track_16.sky130_fd_sc_hd__dfxtp_1_1_ prog_clk_0_FTB00/X mux_top_track_16.mux_l1_in_1_/S
+ VGND VGND VPWR VPWR mux_top_track_16.mux_l2_in_0_/S sky130_fd_sc_hd__dfxtp_1
XFILLER_19_142 VGND VGND VPWR VPWR sky130_fd_sc_hd__decap_3
XFILLER_25_134 VGND VGND VPWR VPWR sky130_fd_sc_hd__fill_2
XANTENNA__067__A _067_/A VGND VGND VPWR VPWR sky130_fd_sc_hd__diode_2
XTAP_159 VGND VPWR sky130_fd_sc_hd__tapvpwrvgnd_1
XANTENNA_mem_left_track_17.sky130_fd_sc_hd__dfxtp_1_1__CLK prog_clk_0_FTB00/X VGND
+ VGND VPWR VPWR sky130_fd_sc_hd__diode_2
XTAP_148 VGND VPWR sky130_fd_sc_hd__tapvpwrvgnd_1
XTAP_137 VGND VPWR sky130_fd_sc_hd__tapvpwrvgnd_1
XFILLER_16_178 VGND VPWR VPWR VGND sky130_ef_sc_hd__decap_12
XFILLER_16_101 VGND VGND VPWR VPWR sky130_fd_sc_hd__decap_3
XTAP_126 VGND VPWR sky130_fd_sc_hd__tapvpwrvgnd_1
Xmux_right_track_8.mux_l2_in_1_ input83/X input79/X mux_right_track_8.mux_l2_in_3_/S
+ VGND VGND VPWR VPWR mux_right_track_8.mux_l2_in_1_/X sky130_fd_sc_hd__mux2_1
XTAP_115 VGND VPWR sky130_fd_sc_hd__tapvpwrvgnd_1
Xmux_top_track_0.mux_l2_in_1_ input35/X input90/X mux_top_track_0.mux_l2_in_3_/S VGND
+ VGND VPWR VPWR mux_top_track_0.mux_l2_in_1_/X sky130_fd_sc_hd__mux2_1
XANTENNA_input16_A chanx_left_in[2] VGND VGND VPWR VPWR sky130_fd_sc_hd__diode_2
XTAP_104 VGND VPWR sky130_fd_sc_hd__tapvpwrvgnd_1
XFILLER_26_78 VGND VGND VPWR VPWR sky130_fd_sc_hd__decap_6
XFILLER_22_137 VGND VGND VPWR VPWR sky130_fd_sc_hd__fill_1
XANTENNA_input8_A chanx_left_in[13] VGND VGND VPWR VPWR sky130_fd_sc_hd__diode_2
XANTENNA_mux_left_track_1.mux_l1_in_1__A0 _060_/A VGND VGND VPWR VPWR sky130_fd_sc_hd__diode_2
Xmux_top_track_22.sky130_fd_sc_hd__buf_4_0_ mux_top_track_22.mux_l2_in_0_/X VGND VGND
+ VPWR VPWR _108_/A sky130_fd_sc_hd__clkbuf_1
XFILLER_13_137 VGND VGND VPWR VPWR sky130_fd_sc_hd__decap_6
XFILLER_12_25 VGND VGND VPWR VPWR sky130_fd_sc_hd__decap_3
Xmux_left_track_5.mux_l2_in_3__183 VGND VGND VPWR VPWR mux_left_track_5.mux_l2_in_3_/A0
+ mux_left_track_5.mux_l2_in_3__183/LO sky130_fd_sc_hd__conb_1
XFILLER_8_141 VGND VPWR VPWR VGND sky130_ef_sc_hd__decap_12
XANTENNA_input83_A right_bottom_grid_pin_9_ VGND VGND VPWR VPWR sky130_fd_sc_hd__diode_2
XFILLER_5_111 VGND VGND VPWR VPWR sky130_fd_sc_hd__fill_1
XANTENNA__080__A _080_/A VGND VGND VPWR VPWR sky130_fd_sc_hd__diode_2
XANTENNA_mux_top_track_14.mux_l1_in_0__A0 _070_/A VGND VGND VPWR VPWR sky130_fd_sc_hd__diode_2
Xmux_top_track_22.mux_l1_in_0_ _075_/A input91/X mux_top_track_22.mux_l1_in_1_/S VGND
+ VGND VPWR VPWR mux_top_track_22.mux_l1_in_0_/X sky130_fd_sc_hd__mux2_1
Xmux_top_track_16.sky130_fd_sc_hd__buf_4_0_ mux_top_track_16.mux_l2_in_0_/X VGND VGND
+ VPWR VPWR _105_/A sky130_fd_sc_hd__clkbuf_1
XANTENNA__075__A _075_/A VGND VGND VPWR VPWR sky130_fd_sc_hd__diode_2
XFILLER_23_13 VGND VGND VPWR VPWR sky130_fd_sc_hd__fill_1
XANTENNA_mux_top_track_0.mux_l2_in_2__A1 _060_/A VGND VGND VPWR VPWR sky130_fd_sc_hd__diode_2
X_110_ _110_/A VGND VGND VPWR VPWR _110_/X sky130_fd_sc_hd__clkbuf_1
XANTENNA_input46_A chany_top_in[11] VGND VGND VPWR VPWR sky130_fd_sc_hd__diode_2
Xmux_top_track_4.mux_l1_in_3__175 VGND VGND VPWR VPWR mux_top_track_4.mux_l1_in_3_/A0
+ mux_top_track_4.mux_l1_in_3__175/LO sky130_fd_sc_hd__conb_1
XANTENNA_mem_top_track_4.sky130_fd_sc_hd__dfxtp_1_2__CLK prog_clk_0_FTB00/X VGND VGND
+ VPWR VPWR sky130_fd_sc_hd__diode_2
XFILLER_20_25 VGND VGND VPWR VPWR sky130_fd_sc_hd__decap_3
XFILLER_4_209 VGND VGND VPWR VPWR sky130_fd_sc_hd__fill_2
Xmem_top_track_16.sky130_fd_sc_hd__dfxtp_1_0_ prog_clk_0_FTB00/X mux_top_track_14.mux_l2_in_0_/S
+ VGND VGND VPWR VPWR mux_top_track_16.mux_l1_in_1_/S sky130_fd_sc_hd__dfxtp_1
XFILLER_31_57 VGND VGND VPWR VPWR sky130_fd_sc_hd__fill_1
Xmux_top_track_0.sky130_fd_sc_hd__buf_4_0_ mux_top_track_0.mux_l4_in_0_/X VGND VGND
+ VPWR VPWR _097_/A sky130_fd_sc_hd__clkbuf_1
XFILLER_25_113 VGND VGND VPWR VPWR sky130_fd_sc_hd__fill_2
XFILLER_25_102 VGND VGND VPWR VPWR sky130_fd_sc_hd__fill_1
XANTENNA__083__A _083_/A VGND VGND VPWR VPWR sky130_fd_sc_hd__diode_2
XFILLER_15_47 VGND VGND VPWR VPWR sky130_fd_sc_hd__decap_6
XTAP_149 VGND VPWR sky130_fd_sc_hd__tapvpwrvgnd_1
Xmux_right_track_8.mux_l2_in_0_ input51/X mux_right_track_8.mux_l1_in_0_/X mux_right_track_8.mux_l2_in_3_/S
+ VGND VGND VPWR VPWR mux_right_track_8.mux_l2_in_0_/X sky130_fd_sc_hd__mux2_1
XTAP_138 VGND VPWR sky130_fd_sc_hd__tapvpwrvgnd_1
Xmux_top_track_0.mux_l2_in_0_ input88/X mux_top_track_0.mux_l1_in_0_/X mux_top_track_0.mux_l2_in_3_/S
+ VGND VGND VPWR VPWR mux_top_track_0.mux_l2_in_0_/X sky130_fd_sc_hd__mux2_1
XFILLER_16_157 VGND VGND VPWR VPWR sky130_fd_sc_hd__fill_1
XTAP_127 VGND VPWR sky130_fd_sc_hd__tapvpwrvgnd_1
XTAP_116 VGND VPWR sky130_fd_sc_hd__tapvpwrvgnd_1
XTAP_105 VGND VPWR sky130_fd_sc_hd__tapvpwrvgnd_1
XFILLER_22_105 VGND VGND VPWR VPWR sky130_fd_sc_hd__decap_6
XFILLER_15_190 VGND VGND VPWR VPWR sky130_fd_sc_hd__decap_3
XFILLER_7_81 VGND VPWR VPWR VGND sky130_ef_sc_hd__decap_12
XANTENNA_mux_left_track_1.mux_l1_in_1__A1 input49/X VGND VGND VPWR VPWR sky130_fd_sc_hd__diode_2
XANTENNA_mux_top_track_22.mux_l1_in_0__A0 _075_/A VGND VGND VPWR VPWR sky130_fd_sc_hd__diode_2
XFILLER_26_13 VGND VGND VPWR VPWR sky130_fd_sc_hd__fill_1
XANTENNA_mux_right_track_4.mux_l1_in_6__A0 _092_/A VGND VGND VPWR VPWR sky130_fd_sc_hd__diode_2
XFILLER_8_153 VGND VPWR VPWR VGND sky130_ef_sc_hd__decap_12
XFILLER_8_197 VGND VGND VPWR VPWR sky130_fd_sc_hd__decap_8
XANTENNA_input76_A right_bottom_grid_pin_13_ VGND VGND VPWR VPWR sky130_fd_sc_hd__diode_2
XFILLER_5_167 VGND VGND VPWR VPWR sky130_fd_sc_hd__fill_1
XANTENNA__091__A _091_/A VGND VGND VPWR VPWR sky130_fd_sc_hd__diode_2
Xmux_top_track_12.mux_l1_in_1__166 VGND VGND VPWR VPWR mux_top_track_12.mux_l1_in_1_/A0
+ mux_top_track_12.mux_l1_in_1__166/LO sky130_fd_sc_hd__conb_1
XFILLER_0_29 VGND VPWR VPWR VGND sky130_ef_sc_hd__decap_12
XANTENNA__086__A _086_/A VGND VGND VPWR VPWR sky130_fd_sc_hd__diode_2
Xmux_top_track_38.sky130_fd_sc_hd__buf_4_0_ mux_top_track_38.mux_l2_in_0_/X VGND VGND
+ VPWR VPWR _116_/A sky130_fd_sc_hd__clkbuf_1
XANTENNA_input39_A chanx_right_in[5] VGND VGND VPWR VPWR sky130_fd_sc_hd__diode_2
XFILLER_29_79 VGND VGND VPWR VPWR sky130_fd_sc_hd__fill_1
XFILLER_19_122 VGND VGND VPWR VPWR sky130_fd_sc_hd__fill_2
XANTENNA_mem_right_track_4.sky130_fd_sc_hd__dfxtp_1_3__CLK prog_clk_0_FTB00/X VGND
+ VGND VPWR VPWR sky130_fd_sc_hd__diode_2
XFILLER_25_169 VGND VGND VPWR VPWR sky130_fd_sc_hd__fill_1
Xmux_top_track_8.mux_l2_in_1__177 VGND VGND VPWR VPWR mux_top_track_8.mux_l2_in_1_/A0
+ mux_top_track_8.mux_l2_in_1__177/LO sky130_fd_sc_hd__conb_1
XTAP_139 VGND VPWR sky130_fd_sc_hd__tapvpwrvgnd_1
XTAP_128 VGND VPWR sky130_fd_sc_hd__tapvpwrvgnd_1
XTAP_117 VGND VPWR sky130_fd_sc_hd__tapvpwrvgnd_1
XTAP_106 VGND VPWR sky130_fd_sc_hd__tapvpwrvgnd_1
XPHY_0 VGND VGND VPWR VPWR sky130_fd_sc_hd__decap_3
XFILLER_7_93 VGND VPWR VPWR VGND sky130_ef_sc_hd__decap_12
XANTENNA__094__A _094_/A VGND VGND VPWR VPWR sky130_fd_sc_hd__diode_2
XANTENNA_mem_left_track_33.sky130_fd_sc_hd__dfxtp_1_2__CLK prog_clk_0_FTB00/X VGND
+ VGND VPWR VPWR sky130_fd_sc_hd__diode_2
XANTENNA_mux_right_track_4.mux_l1_in_6__A1 _083_/A VGND VGND VPWR VPWR sky130_fd_sc_hd__diode_2
XANTENNA_input21_A chanx_left_in[7] VGND VGND VPWR VPWR sky130_fd_sc_hd__diode_2
XFILLER_8_165 VGND VPWR VPWR VGND sky130_ef_sc_hd__decap_12
Xmux_right_track_8.mux_l1_in_0_ input63/X input56/X mux_right_track_8.mux_l1_in_0_/S
+ VGND VGND VPWR VPWR mux_right_track_8.mux_l1_in_0_/X sky130_fd_sc_hd__mux2_1
Xmux_top_track_0.mux_l1_in_0_ input86/X input84/X mux_top_track_0.mux_l1_in_0_/S VGND
+ VGND VPWR VPWR mux_top_track_0.mux_l1_in_0_/X sky130_fd_sc_hd__mux2_1
XANTENNA_mem_right_track_8.sky130_fd_sc_hd__dfxtp_1_0__CLK prog_clk_0_FTB00/X VGND
+ VGND VPWR VPWR sky130_fd_sc_hd__diode_2
XANTENNA_input69_A left_bottom_grid_pin_1_ VGND VGND VPWR VPWR sky130_fd_sc_hd__diode_2
XFILLER_5_113 VGND VPWR VPWR VGND sky130_ef_sc_hd__decap_12
XFILLER_4_83 VGND VGND VPWR VPWR sky130_fd_sc_hd__fill_1
Xmux_right_track_8.sky130_fd_sc_hd__buf_4_0_ mux_right_track_8.mux_l4_in_0_/X VGND
+ VGND VPWR VPWR _081_/A sky130_fd_sc_hd__clkbuf_1
XANTENNA_mux_top_track_6.mux_l1_in_0__A1 _110_/A VGND VGND VPWR VPWR sky130_fd_sc_hd__diode_2
Xmux_top_track_2.mux_l1_in_3__170 VGND VGND VPWR VPWR mux_top_track_2.mux_l1_in_3_/A0
+ mux_top_track_2.mux_l1_in_3__170/LO sky130_fd_sc_hd__conb_1
X_099_ _099_/A VGND VGND VPWR VPWR _099_/X sky130_fd_sc_hd__clkbuf_1
XANTENNA_mem_top_track_18.sky130_fd_sc_hd__dfxtp_1_1__CLK prog_clk_0_FTB00/X VGND
+ VGND VPWR VPWR sky130_fd_sc_hd__diode_2
XANTENNA_mux_top_track_4.mux_l1_in_2__A1 _063_/A VGND VGND VPWR VPWR sky130_fd_sc_hd__diode_2
XFILLER_1_40 VGND VPWR VPWR VGND sky130_ef_sc_hd__decap_12
XANTENNA_input51_A chany_top_in[16] VGND VGND VPWR VPWR sky130_fd_sc_hd__diode_2
XFILLER_6_29 VGND VGND VPWR VPWR sky130_fd_sc_hd__decap_8
Xmux_right_track_32.sky130_fd_sc_hd__buf_4_0_ mux_right_track_32.mux_l3_in_0_/X VGND
+ VGND VPWR VPWR _093_/A sky130_fd_sc_hd__clkbuf_1
XFILLER_25_126 VGND VGND VPWR VPWR sky130_fd_sc_hd__decap_8
Xmux_right_track_4.mux_l1_in_6_ _092_/A _083_/A repeater157/X VGND VGND VPWR VPWR
+ mux_right_track_4.mux_l1_in_6_/X sky130_fd_sc_hd__mux2_1
XFILLER_22_129 VGND VGND VPWR VPWR sky130_fd_sc_hd__decap_8
XTAP_129 VGND VPWR sky130_fd_sc_hd__tapvpwrvgnd_1
XTAP_118 VGND VPWR sky130_fd_sc_hd__tapvpwrvgnd_1
XTAP_107 VGND VPWR sky130_fd_sc_hd__tapvpwrvgnd_1
XPHY_1 VGND VGND VPWR VPWR sky130_fd_sc_hd__decap_3
XANTENNA_input14_A chanx_left_in[19] VGND VGND VPWR VPWR sky130_fd_sc_hd__diode_2
XFILLER_12_184 VGND VGND VPWR VPWR sky130_fd_sc_hd__decap_3
XFILLER_8_122 VGND VGND VPWR VPWR sky130_fd_sc_hd__fill_1
XFILLER_8_177 VGND VPWR VPWR VGND sky130_ef_sc_hd__decap_12
XANTENNA_input6_A chanx_left_in[11] VGND VGND VPWR VPWR sky130_fd_sc_hd__diode_2
XFILLER_17_210 VGND VGND VPWR VPWR sky130_fd_sc_hd__fill_2
Xmem_left_track_1.sky130_fd_sc_hd__dfxtp_1_3_ prog_clk_0_FTB00/X mux_left_track_1.mux_l3_in_1_/S
+ VGND VGND VPWR VPWR mux_left_track_1.mux_l4_in_0_/S sky130_fd_sc_hd__dfxtp_1
XFILLER_5_125 VGND VPWR VPWR VGND sky130_ef_sc_hd__decap_12
XFILLER_5_169 VGND VPWR VPWR VGND sky130_ef_sc_hd__decap_12
Xmux_left_track_3.mux_l2_in_3_ mux_left_track_3.mux_l2_in_3_/A0 input67/X mux_left_track_3.mux_l2_in_3_/S
+ VGND VGND VPWR VPWR mux_left_track_3.mux_l2_in_3_/X sky130_fd_sc_hd__mux2_1
XANTENNA_mem_top_track_2.sky130_fd_sc_hd__dfxtp_1_0__CLK prog_clk_0_FTB00/X VGND VGND
+ VPWR VPWR sky130_fd_sc_hd__diode_2
XFILLER_23_49 VGND VGND VPWR VPWR sky130_fd_sc_hd__decap_4