* NGSPICE file created from sb_1__0_.ext - technology: sky130A

* Black-box entry subcircuit for sky130_fd_sc_hd__decap_3 abstract view
.subckt sky130_fd_sc_hd__decap_3 VGND VNB VPB VPWR
.ends

* Black-box entry subcircuit for sky130_fd_sc_hd__dfxtp_1 abstract view
.subckt sky130_fd_sc_hd__dfxtp_1 CLK D VGND VNB VPB VPWR Q
.ends

* Black-box entry subcircuit for sky130_fd_sc_hd__fill_1 abstract view
.subckt sky130_fd_sc_hd__fill_1 VGND VNB VPB VPWR
.ends

* Black-box entry subcircuit for sky130_fd_sc_hd__decap_12 abstract view
.subckt sky130_fd_sc_hd__decap_12 VGND VNB VPB VPWR
.ends

* Black-box entry subcircuit for sky130_fd_sc_hd__decap_8 abstract view
.subckt sky130_fd_sc_hd__decap_8 VGND VNB VPB VPWR
.ends

* Black-box entry subcircuit for sky130_fd_sc_hd__clkbuf_1 abstract view
.subckt sky130_fd_sc_hd__clkbuf_1 A VGND VNB VPB VPWR X
.ends

* Black-box entry subcircuit for sky130_fd_sc_hd__diode_2 abstract view
.subckt sky130_fd_sc_hd__diode_2 DIODE VGND VNB VPB VPWR
.ends

* Black-box entry subcircuit for sky130_fd_sc_hd__mux2_1 abstract view
.subckt sky130_fd_sc_hd__mux2_1 A0 A1 S VGND VNB VPB VPWR X
.ends

* Black-box entry subcircuit for sky130_fd_sc_hd__dfxtp_2 abstract view
.subckt sky130_fd_sc_hd__dfxtp_2 CLK D VGND VNB VPB VPWR Q
.ends

* Black-box entry subcircuit for sky130_fd_sc_hd__fill_2 abstract view
.subckt sky130_fd_sc_hd__fill_2 VGND VNB VPB VPWR
.ends

* Black-box entry subcircuit for sky130_fd_sc_hd__buf_1 abstract view
.subckt sky130_fd_sc_hd__buf_1 A VGND VNB VPB VPWR X
.ends

* Black-box entry subcircuit for sky130_fd_sc_hd__conb_1 abstract view
.subckt sky130_fd_sc_hd__conb_1 VGND VNB VPB VPWR HI LO
.ends

* Black-box entry subcircuit for sky130_fd_sc_hd__decap_4 abstract view
.subckt sky130_fd_sc_hd__decap_4 VGND VNB VPB VPWR
.ends

* Black-box entry subcircuit for sky130_fd_sc_hd__tapvpwrvgnd_1 abstract view
.subckt sky130_fd_sc_hd__tapvpwrvgnd_1 VGND VPWR
.ends

* Black-box entry subcircuit for sky130_fd_sc_hd__clkbuf_2 abstract view
.subckt sky130_fd_sc_hd__clkbuf_2 A VGND VNB VPB VPWR X
.ends

* Black-box entry subcircuit for sky130_fd_sc_hd__decap_6 abstract view
.subckt sky130_fd_sc_hd__decap_6 VGND VNB VPB VPWR
.ends

* Black-box entry subcircuit for sky130_fd_sc_hd__clkbuf_16 abstract view
.subckt sky130_fd_sc_hd__clkbuf_16 A VGND VNB VPB VPWR X
.ends

* Black-box entry subcircuit for sky130_fd_sc_hd__buf_8 abstract view
.subckt sky130_fd_sc_hd__buf_8 A VGND VNB VPB VPWR X
.ends

* Black-box entry subcircuit for sky130_fd_sc_hd__dlygate4sd3_1 abstract view
.subckt sky130_fd_sc_hd__dlygate4sd3_1 A VGND VNB VPB VPWR X
.ends

* Black-box entry subcircuit for sky130_fd_sc_hd__buf_2 abstract view
.subckt sky130_fd_sc_hd__buf_2 A VGND VNB VPB VPWR X
.ends

* Black-box entry subcircuit for sky130_fd_sc_hd__dlygate4sd1_1 abstract view
.subckt sky130_fd_sc_hd__dlygate4sd1_1 A VGND VNB VPB VPWR X
.ends

* Black-box entry subcircuit for sky130_fd_sc_hd__dfxtp_4 abstract view
.subckt sky130_fd_sc_hd__dfxtp_4 CLK D VGND VNB VPB VPWR Q
.ends

.subckt sb_1__0_ SC_IN_TOP SC_OUT_TOP Test_en_N_out Test_en_S_in ccff_head ccff_tail
+ chanx_left_in[0] chanx_left_in[10] chanx_left_in[11] chanx_left_in[12] chanx_left_in[13]
+ chanx_left_in[14] chanx_left_in[15] chanx_left_in[16] chanx_left_in[17] chanx_left_in[18]
+ chanx_left_in[19] chanx_left_in[1] chanx_left_in[2] chanx_left_in[3] chanx_left_in[4]
+ chanx_left_in[5] chanx_left_in[6] chanx_left_in[7] chanx_left_in[8] chanx_left_in[9]
+ chanx_left_out[0] chanx_left_out[10] chanx_left_out[11] chanx_left_out[12] chanx_left_out[13]
+ chanx_left_out[14] chanx_left_out[15] chanx_left_out[16] chanx_left_out[17] chanx_left_out[18]
+ chanx_left_out[19] chanx_left_out[1] chanx_left_out[2] chanx_left_out[3] chanx_left_out[4]
+ chanx_left_out[5] chanx_left_out[6] chanx_left_out[7] chanx_left_out[8] chanx_left_out[9]
+ chanx_right_in[0] chanx_right_in[10] chanx_right_in[11] chanx_right_in[12] chanx_right_in[13]
+ chanx_right_in[14] chanx_right_in[15] chanx_right_in[16] chanx_right_in[17] chanx_right_in[18]
+ chanx_right_in[19] chanx_right_in[1] chanx_right_in[2] chanx_right_in[3] chanx_right_in[4]
+ chanx_right_in[5] chanx_right_in[6] chanx_right_in[7] chanx_right_in[8] chanx_right_in[9]
+ chanx_right_out[0] chanx_right_out[10] chanx_right_out[11] chanx_right_out[12] chanx_right_out[13]
+ chanx_right_out[14] chanx_right_out[15] chanx_right_out[16] chanx_right_out[17]
+ chanx_right_out[18] chanx_right_out[19] chanx_right_out[1] chanx_right_out[2] chanx_right_out[3]
+ chanx_right_out[4] chanx_right_out[5] chanx_right_out[6] chanx_right_out[7] chanx_right_out[8]
+ chanx_right_out[9] chany_top_in[0] chany_top_in[10] chany_top_in[11] chany_top_in[12]
+ chany_top_in[13] chany_top_in[14] chany_top_in[15] chany_top_in[16] chany_top_in[17]
+ chany_top_in[18] chany_top_in[19] chany_top_in[1] chany_top_in[2] chany_top_in[3]
+ chany_top_in[4] chany_top_in[5] chany_top_in[6] chany_top_in[7] chany_top_in[8]
+ chany_top_in[9] chany_top_out[0] chany_top_out[10] chany_top_out[11] chany_top_out[12]
+ chany_top_out[13] chany_top_out[14] chany_top_out[15] chany_top_out[16] chany_top_out[17]
+ chany_top_out[18] chany_top_out[19] chany_top_out[1] chany_top_out[2] chany_top_out[3]
+ chany_top_out[4] chany_top_out[5] chany_top_out[6] chany_top_out[7] chany_top_out[8]
+ chany_top_out[9] clk_3_N_out clk_3_S_in left_bottom_grid_pin_11_ left_bottom_grid_pin_13_
+ left_bottom_grid_pin_15_ left_bottom_grid_pin_17_ left_bottom_grid_pin_1_ left_bottom_grid_pin_3_
+ left_bottom_grid_pin_5_ left_bottom_grid_pin_7_ left_bottom_grid_pin_9_ prog_clk_0_N_in
+ prog_clk_3_N_out prog_clk_3_S_in right_bottom_grid_pin_11_ right_bottom_grid_pin_13_
+ right_bottom_grid_pin_15_ right_bottom_grid_pin_17_ right_bottom_grid_pin_1_ right_bottom_grid_pin_3_
+ right_bottom_grid_pin_5_ right_bottom_grid_pin_7_ right_bottom_grid_pin_9_ top_left_grid_pin_42_
+ top_left_grid_pin_43_ top_left_grid_pin_44_ top_left_grid_pin_45_ top_left_grid_pin_46_
+ top_left_grid_pin_47_ top_left_grid_pin_48_ top_left_grid_pin_49_ VPWR VGND
XFILLER_22_122 VGND VGND VPWR VPWR sky130_fd_sc_hd__decap_3
Xmem_right_track_2.sky130_fd_sc_hd__dfxtp_1_0_ clkbuf_3_4_0_mem_left_track_1.prog_clk/X
+ mux_right_track_0.mux_l4_in_0_/S VGND VGND VPWR VPWR mux_right_track_2.mux_l1_in_1_/S
+ sky130_fd_sc_hd__dfxtp_1
Xmem_left_track_17.sky130_fd_sc_hd__dfxtp_1_0_ clkbuf_3_0_0_mem_left_track_1.prog_clk/X
+ mux_left_track_9.mux_l4_in_0_/S VGND VGND VPWR VPWR mux_left_track_17.mux_l1_in_3_/S
+ sky130_fd_sc_hd__dfxtp_1
XFILLER_13_133 VGND VGND VPWR VPWR sky130_fd_sc_hd__fill_1
XFILLER_3_56 VGND VGND VPWR VPWR sky130_fd_sc_hd__fill_1
XFILLER_9_115 VGND VGND VPWR VPWR sky130_fd_sc_hd__decap_12
XFILLER_8_192 VGND VGND VPWR VPWR sky130_fd_sc_hd__decap_8
XFILLER_12_98 VGND VGND VPWR VPWR sky130_fd_sc_hd__decap_3
XFILLER_5_151 VGND VGND VPWR VPWR sky130_fd_sc_hd__decap_12
XFILLER_5_184 VGND VGND VPWR VPWR sky130_fd_sc_hd__decap_12
X_062_ _062_/A VGND VGND VPWR VPWR _062_/X sky130_fd_sc_hd__clkbuf_1
XFILLER_23_31 VGND VGND VPWR VPWR sky130_fd_sc_hd__decap_3
XANTENNA_input55_A chany_top_in[1] VGND VGND VPWR VPWR sky130_fd_sc_hd__diode_2
Xmux_top_track_10.mux_l3_in_0_ mux_top_track_10.mux_l2_in_1_/X mux_top_track_10.mux_l2_in_0_/X
+ mux_top_track_10.mux_l3_in_0_/S VGND VGND VPWR VPWR mux_top_track_10.mux_l3_in_0_/X
+ sky130_fd_sc_hd__mux2_1
Xmem_right_track_8.sky130_fd_sc_hd__dfxtp_1_1_ clkbuf_3_3_0_mem_left_track_1.prog_clk/X
+ mux_right_track_8.mux_l1_in_0_/S VGND VGND VPWR VPWR mux_right_track_8.mux_l2_in_3_/S
+ sky130_fd_sc_hd__dfxtp_2
XFILLER_0_79 VGND VGND VPWR VPWR sky130_fd_sc_hd__decap_8
XFILLER_9_66 VGND VGND VPWR VPWR sky130_fd_sc_hd__fill_2
X_114_ _114_/A VGND VGND VPWR VPWR _114_/X sky130_fd_sc_hd__buf_1
X_045_ VGND VGND VPWR VPWR _045_/HI _045_/LO sky130_fd_sc_hd__conb_1
XFILLER_28_194 VGND VGND VPWR VPWR sky130_fd_sc_hd__fill_1
Xmux_top_track_10.mux_l2_in_1_ _031_/HI _087_/A mux_top_track_10.mux_l2_in_1_/S VGND
+ VGND VPWR VPWR mux_top_track_10.mux_l2_in_1_/X sky130_fd_sc_hd__mux2_1
XFILLER_20_87 VGND VGND VPWR VPWR sky130_fd_sc_hd__decap_4
XANTENNA_input18_A chanx_left_in[4] VGND VGND VPWR VPWR sky130_fd_sc_hd__diode_2
X_028_ VGND VGND VPWR VPWR _028_/HI _028_/LO sky130_fd_sc_hd__conb_1
XFILLER_6_78 VGND VGND VPWR VPWR sky130_fd_sc_hd__decap_8
XPHY_192 VGND VPWR sky130_fd_sc_hd__tapvpwrvgnd_1
XPHY_181 VGND VPWR sky130_fd_sc_hd__tapvpwrvgnd_1
Xoutput97 _068_/X VGND VGND VPWR VPWR chanx_left_out[11] sky130_fd_sc_hd__clkbuf_2
XPHY_170 VGND VPWR sky130_fd_sc_hd__tapvpwrvgnd_1
XANTENNA_input85_A top_left_grid_pin_43_ VGND VGND VPWR VPWR sky130_fd_sc_hd__diode_2
XANTENNA_mux_right_track_0.mux_l2_in_3__A1 _090_/A VGND VGND VPWR VPWR sky130_fd_sc_hd__diode_2
XFILLER_13_112 VGND VGND VPWR VPWR sky130_fd_sc_hd__fill_2
XFILLER_9_127 VGND VGND VPWR VPWR sky130_fd_sc_hd__decap_12
XFILLER_12_22 VGND VGND VPWR VPWR sky130_fd_sc_hd__decap_6
XFILLER_5_163 VGND VGND VPWR VPWR sky130_fd_sc_hd__decap_8
XFILLER_5_196 VGND VGND VPWR VPWR sky130_fd_sc_hd__decap_12
XANTENNA_mux_top_track_0.mux_l1_in_0__A1 input84/X VGND VGND VPWR VPWR sky130_fd_sc_hd__diode_2
XANTENNA_input48_A chany_top_in[13] VGND VGND VPWR VPWR sky130_fd_sc_hd__diode_2
Xmem_top_track_10.sky130_fd_sc_hd__dfxtp_1_2_ clkbuf_3_7_0_mem_left_track_1.prog_clk/X
+ mux_top_track_10.mux_l2_in_1_/S VGND VGND VPWR VPWR mux_top_track_10.mux_l3_in_0_/S
+ sky130_fd_sc_hd__dfxtp_1
XFILLER_23_87 VGND VGND VPWR VPWR sky130_fd_sc_hd__decap_12
X_061_ _061_/A VGND VGND VPWR VPWR _061_/X sky130_fd_sc_hd__clkbuf_1
Xmem_right_track_8.sky130_fd_sc_hd__dfxtp_1_0_ clkbuf_3_3_0_mem_left_track_1.prog_clk/X
+ mux_right_track_4.mux_l4_in_0_/S VGND VGND VPWR VPWR mux_right_track_8.mux_l1_in_0_/S
+ sky130_fd_sc_hd__dfxtp_1
XFILLER_2_111 VGND VGND VPWR VPWR sky130_fd_sc_hd__decap_12
XFILLER_2_144 VGND VGND VPWR VPWR sky130_fd_sc_hd__decap_12
Xmux_left_track_9.sky130_fd_sc_hd__buf_4_0_ mux_left_track_9.mux_l4_in_0_/X VGND VGND
+ VPWR VPWR _061_/A sky130_fd_sc_hd__clkbuf_1
X_113_ _113_/A VGND VGND VPWR VPWR _113_/X sky130_fd_sc_hd__buf_1
XFILLER_18_21 VGND VGND VPWR VPWR sky130_fd_sc_hd__decap_8
XFILLER_7_214 VGND VGND VPWR VPWR sky130_fd_sc_hd__decap_3
X_044_ VGND VGND VPWR VPWR _044_/HI _044_/LO sky130_fd_sc_hd__conb_1
Xmux_top_track_10.mux_l2_in_0_ input34/X mux_top_track_10.mux_l1_in_0_/X mux_top_track_10.mux_l2_in_1_/S
+ VGND VGND VPWR VPWR mux_top_track_10.mux_l2_in_0_/X sky130_fd_sc_hd__mux2_1
XPHY_193 VGND VPWR sky130_fd_sc_hd__tapvpwrvgnd_1
XPHY_182 VGND VPWR sky130_fd_sc_hd__tapvpwrvgnd_1
Xoutput98 _069_/X VGND VGND VPWR VPWR chanx_left_out[12] sky130_fd_sc_hd__clkbuf_2
XPHY_171 VGND VPWR sky130_fd_sc_hd__tapvpwrvgnd_1
XPHY_160 VGND VPWR sky130_fd_sc_hd__tapvpwrvgnd_1
Xmux_right_track_8.mux_l2_in_3_ _029_/HI _094_/A mux_right_track_8.mux_l2_in_3_/S
+ VGND VGND VPWR VPWR mux_right_track_8.mux_l2_in_3_/X sky130_fd_sc_hd__mux2_1
XANTENNA_input30_A chanx_right_in[15] VGND VGND VPWR VPWR sky130_fd_sc_hd__diode_2
Xmux_left_track_25.sky130_fd_sc_hd__buf_4_0_ mux_left_track_25.mux_l3_in_0_/X VGND
+ VGND VPWR VPWR _069_/A sky130_fd_sc_hd__clkbuf_1
Xmux_top_track_0.mux_l2_in_3_ _030_/HI _080_/A mux_top_track_0.mux_l2_in_3_/S VGND
+ VGND VPWR VPWR mux_top_track_0.mux_l2_in_3_/X sky130_fd_sc_hd__mux2_1
XFILLER_26_87 VGND VGND VPWR VPWR sky130_fd_sc_hd__fill_1
XFILLER_13_168 VGND VGND VPWR VPWR sky130_fd_sc_hd__fill_1
XANTENNA_input78_A right_bottom_grid_pin_17_ VGND VGND VPWR VPWR sky130_fd_sc_hd__diode_2
XFILLER_7_9 VGND VGND VPWR VPWR sky130_fd_sc_hd__decap_12
XFILLER_9_139 VGND VGND VPWR VPWR sky130_fd_sc_hd__decap_12
XFILLER_3_58 VGND VGND VPWR VPWR sky130_fd_sc_hd__decap_12
Xmux_right_track_8.mux_l4_in_0_ mux_right_track_8.mux_l3_in_1_/X mux_right_track_8.mux_l3_in_0_/X
+ mux_right_track_8.mux_l4_in_0_/S VGND VGND VPWR VPWR mux_right_track_8.mux_l4_in_0_/X
+ sky130_fd_sc_hd__mux2_1
Xclkbuf_0_mem_left_track_1.prog_clk prog_clk_0_FTB00/X VGND VGND VPWR VPWR clkbuf_0_mem_left_track_1.prog_clk/X
+ sky130_fd_sc_hd__clkbuf_16
Xmux_top_track_0.mux_l4_in_0_ mux_top_track_0.mux_l3_in_1_/X mux_top_track_0.mux_l3_in_0_/X
+ mux_top_track_0.mux_l4_in_0_/S VGND VGND VPWR VPWR mux_top_track_0.mux_l4_in_0_/X
+ sky130_fd_sc_hd__mux2_1
Xmem_top_track_10.sky130_fd_sc_hd__dfxtp_1_1_ clkbuf_3_7_0_mem_left_track_1.prog_clk/X
+ mux_top_track_10.mux_l1_in_0_/S VGND VGND VPWR VPWR mux_top_track_10.mux_l2_in_1_/S
+ sky130_fd_sc_hd__dfxtp_1
XFILLER_23_99 VGND VGND VPWR VPWR sky130_fd_sc_hd__decap_3
X_060_ _060_/A VGND VGND VPWR VPWR _060_/X sky130_fd_sc_hd__clkbuf_1
XFILLER_0_59 VGND VGND VPWR VPWR sky130_fd_sc_hd__decap_4
XFILLER_2_123 VGND VGND VPWR VPWR sky130_fd_sc_hd__decap_12
XFILLER_2_156 VGND VGND VPWR VPWR sky130_fd_sc_hd__decap_12
XFILLER_9_13 VGND VGND VPWR VPWR sky130_fd_sc_hd__decap_6
Xclkbuf_2_0_0_mem_left_track_1.prog_clk clkbuf_2_1_0_mem_left_track_1.prog_clk/A VGND
+ VGND VPWR VPWR clkbuf_3_1_0_mem_left_track_1.prog_clk/A sky130_fd_sc_hd__clkbuf_1
X_112_ _112_/A VGND VGND VPWR VPWR _112_/X sky130_fd_sc_hd__buf_1
X_043_ VGND VGND VPWR VPWR _043_/HI _043_/LO sky130_fd_sc_hd__conb_1
XANTENNA_input60_A chany_top_in[6] VGND VGND VPWR VPWR sky130_fd_sc_hd__diode_2
Xmux_right_track_8.mux_l3_in_1_ mux_right_track_8.mux_l2_in_3_/X mux_right_track_8.mux_l2_in_2_/X
+ mux_right_track_8.mux_l3_in_1_/S VGND VGND VPWR VPWR mux_right_track_8.mux_l3_in_1_/X
+ sky130_fd_sc_hd__mux2_1
Xmux_top_track_0.mux_l3_in_1_ mux_top_track_0.mux_l2_in_3_/X mux_top_track_0.mux_l2_in_2_/X
+ mux_top_track_0.mux_l3_in_1_/S VGND VGND VPWR VPWR mux_top_track_0.mux_l3_in_1_/X
+ sky130_fd_sc_hd__mux2_1
XFILLER_29_43 VGND VGND VPWR VPWR sky130_fd_sc_hd__fill_1
XFILLER_19_163 VGND VGND VPWR VPWR sky130_fd_sc_hd__decap_8
Xoutput99 _070_/X VGND VGND VPWR VPWR chanx_left_out[13] sky130_fd_sc_hd__clkbuf_2
XFILLER_31_44 VGND VGND VPWR VPWR sky130_fd_sc_hd__decap_8
Xmux_right_track_8.mux_l2_in_2_ _084_/A input78/X mux_right_track_8.mux_l2_in_3_/S
+ VGND VGND VPWR VPWR mux_right_track_8.mux_l2_in_2_/X sky130_fd_sc_hd__mux2_1
XFILLER_16_144 VGND VGND VPWR VPWR sky130_fd_sc_hd__decap_3
XANTENNA_input23_A chanx_left_in[9] VGND VGND VPWR VPWR sky130_fd_sc_hd__diode_2
XPHY_183 VGND VPWR sky130_fd_sc_hd__tapvpwrvgnd_1
XPHY_172 VGND VPWR sky130_fd_sc_hd__tapvpwrvgnd_1
XPHY_161 VGND VPWR sky130_fd_sc_hd__tapvpwrvgnd_1
Xmux_top_track_0.mux_l2_in_2_ input4/X _060_/A mux_top_track_0.mux_l2_in_3_/S VGND
+ VGND VPWR VPWR mux_top_track_0.mux_l2_in_2_/X sky130_fd_sc_hd__mux2_1
XPHY_150 VGND VPWR sky130_fd_sc_hd__tapvpwrvgnd_1
Xmux_top_track_22.mux_l2_in_0_ mux_top_track_22.mux_l1_in_1_/X mux_top_track_22.mux_l1_in_0_/X
+ mux_top_track_22.mux_l2_in_0_/S VGND VGND VPWR VPWR mux_top_track_22.mux_l2_in_0_/X
+ sky130_fd_sc_hd__mux2_1
Xmux_top_track_10.mux_l1_in_0_ _067_/A _110_/A mux_top_track_10.mux_l1_in_0_/S VGND
+ VGND VPWR VPWR mux_top_track_10.mux_l1_in_0_/X sky130_fd_sc_hd__mux2_1
XFILLER_22_169 VGND VGND VPWR VPWR sky130_fd_sc_hd__decap_12
XANTENNA__064__A _064_/A VGND VGND VPWR VPWR sky130_fd_sc_hd__diode_2
Xclkbuf_2_3_0_mem_left_track_1.prog_clk clkbuf_2_3_0_mem_left_track_1.prog_clk/A VGND
+ VGND VPWR VPWR clkbuf_3_7_0_mem_left_track_1.prog_clk/A sky130_fd_sc_hd__clkbuf_1
XANTENNA_input90_A top_left_grid_pin_48_ VGND VGND VPWR VPWR sky130_fd_sc_hd__diode_2
Xprog_clk_0_FTB00 prog_clk_0_N_in VGND VGND VPWR VPWR prog_clk_0_FTB00/X sky130_fd_sc_hd__buf_8
Xmux_top_track_22.mux_l1_in_1_ _038_/HI _095_/A mux_top_track_22.mux_l1_in_1_/S VGND
+ VGND VPWR VPWR mux_top_track_22.mux_l1_in_1_/X sky130_fd_sc_hd__mux2_1
Xmem_top_track_10.sky130_fd_sc_hd__dfxtp_1_0_ clkbuf_3_7_0_mem_left_track_1.prog_clk/X
+ mux_top_track_8.mux_l3_in_0_/S VGND VGND VPWR VPWR mux_top_track_10.mux_l1_in_0_/S
+ sky130_fd_sc_hd__dfxtp_1
XFILLER_23_67 VGND VGND VPWR VPWR sky130_fd_sc_hd__fill_2
XFILLER_23_56 VGND VGND VPWR VPWR sky130_fd_sc_hd__fill_1
XFILLER_23_12 VGND VGND VPWR VPWR sky130_fd_sc_hd__decap_8
XFILLER_2_135 VGND VGND VPWR VPWR sky130_fd_sc_hd__decap_8
XFILLER_2_168 VGND VGND VPWR VPWR sky130_fd_sc_hd__decap_12
XFILLER_9_58 VGND VGND VPWR VPWR sky130_fd_sc_hd__decap_8
XANTENNA_input53_A chany_top_in[18] VGND VGND VPWR VPWR sky130_fd_sc_hd__diode_2
X_111_ _111_/A VGND VGND VPWR VPWR _111_/X sky130_fd_sc_hd__buf_1
X_042_ VGND VGND VPWR VPWR _042_/HI _042_/LO sky130_fd_sc_hd__conb_1
XFILLER_15_9 VGND VGND VPWR VPWR sky130_fd_sc_hd__fill_1
XANTENNA__072__A _072_/A VGND VGND VPWR VPWR sky130_fd_sc_hd__diode_2
Xmux_top_track_0.mux_l3_in_0_ mux_top_track_0.mux_l2_in_1_/X mux_top_track_0.mux_l2_in_0_/X
+ mux_top_track_0.mux_l3_in_1_/S VGND VGND VPWR VPWR mux_top_track_0.mux_l3_in_0_/X
+ sky130_fd_sc_hd__mux2_1
Xmux_right_track_8.mux_l3_in_0_ mux_right_track_8.mux_l2_in_1_/X mux_right_track_8.mux_l2_in_0_/X
+ mux_right_track_8.mux_l3_in_1_/S VGND VGND VPWR VPWR mux_right_track_8.mux_l3_in_0_/X
+ sky130_fd_sc_hd__mux2_1
XFILLER_1_70 VGND VGND VPWR VPWR sky130_fd_sc_hd__decap_12
XFILLER_29_99 VGND VGND VPWR VPWR sky130_fd_sc_hd__fill_1
XFILLER_29_66 VGND VGND VPWR VPWR sky130_fd_sc_hd__fill_1
XFILLER_29_55 VGND VGND VPWR VPWR sky130_fd_sc_hd__fill_2
XFILLER_28_142 VGND VGND VPWR VPWR sky130_fd_sc_hd__fill_1
Xprog_clk_3_N_FTB01 input74/X VGND VGND VPWR VPWR output156/A sky130_fd_sc_hd__buf_1
Xmem_top_track_16.sky130_fd_sc_hd__dfxtp_1_1_ clkbuf_3_3_0_mem_left_track_1.prog_clk/X
+ mux_top_track_16.mux_l1_in_1_/S VGND VGND VPWR VPWR mux_top_track_16.mux_l2_in_0_/S
+ sky130_fd_sc_hd__dfxtp_1
XFILLER_19_197 VGND VGND VPWR VPWR sky130_fd_sc_hd__decap_6
XANTENNA__067__A _067_/A VGND VGND VPWR VPWR sky130_fd_sc_hd__diode_2
XFILLER_15_24 VGND VGND VPWR VPWR sky130_fd_sc_hd__fill_2
XPHY_184 VGND VPWR sky130_fd_sc_hd__tapvpwrvgnd_1
XPHY_173 VGND VPWR sky130_fd_sc_hd__tapvpwrvgnd_1
Xmux_top_track_0.mux_l2_in_1_ input35/X input90/X mux_top_track_0.mux_l2_in_3_/S VGND
+ VGND VPWR VPWR mux_top_track_0.mux_l2_in_1_/X sky130_fd_sc_hd__mux2_1
XPHY_162 VGND VPWR sky130_fd_sc_hd__tapvpwrvgnd_1
XPHY_151 VGND VPWR sky130_fd_sc_hd__tapvpwrvgnd_1
XPHY_140 VGND VPWR sky130_fd_sc_hd__tapvpwrvgnd_1
Xmux_right_track_8.mux_l2_in_1_ input83/X input79/X mux_right_track_8.mux_l2_in_3_/S
+ VGND VGND VPWR VPWR mux_right_track_8.mux_l2_in_1_/X sky130_fd_sc_hd__mux2_1
XANTENNA_input16_A chanx_left_in[2] VGND VGND VPWR VPWR sky130_fd_sc_hd__diode_2
XFILLER_26_12 VGND VGND VPWR VPWR sky130_fd_sc_hd__decap_4
XANTENNA_input8_A chanx_left_in[13] VGND VGND VPWR VPWR sky130_fd_sc_hd__diode_2
XFILLER_13_115 VGND VGND VPWR VPWR sky130_fd_sc_hd__fill_2
XANTENNA_mux_left_track_1.mux_l1_in_1__A0 _060_/A VGND VGND VPWR VPWR sky130_fd_sc_hd__diode_2
Xmux_top_track_22.sky130_fd_sc_hd__buf_4_0_ mux_top_track_22.mux_l2_in_0_/X VGND VGND
+ VPWR VPWR _108_/A sky130_fd_sc_hd__clkbuf_1
XFILLER_9_108 VGND VGND VPWR VPWR sky130_fd_sc_hd__decap_6
XANTENNA__080__A _080_/A VGND VGND VPWR VPWR sky130_fd_sc_hd__diode_2
XANTENNA_input83_A right_bottom_grid_pin_9_ VGND VGND VPWR VPWR sky130_fd_sc_hd__diode_2
XANTENNA_mux_top_track_14.mux_l1_in_0__A0 _070_/A VGND VGND VPWR VPWR sky130_fd_sc_hd__diode_2
Xmux_top_track_16.sky130_fd_sc_hd__buf_4_0_ mux_top_track_16.mux_l2_in_0_/X VGND VGND
+ VPWR VPWR _105_/A sky130_fd_sc_hd__clkbuf_1
XANTENNA__075__A _075_/A VGND VGND VPWR VPWR sky130_fd_sc_hd__diode_2
Xmux_top_track_22.mux_l1_in_0_ _075_/A input91/X mux_top_track_22.mux_l1_in_1_/S VGND
+ VGND VPWR VPWR mux_top_track_22.mux_l1_in_0_/X sky130_fd_sc_hd__mux2_1
XANTENNA_mux_top_track_0.mux_l2_in_2__A1 _060_/A VGND VGND VPWR VPWR sky130_fd_sc_hd__diode_2
XFILLER_18_79 VGND VGND VPWR VPWR sky130_fd_sc_hd__decap_6
XFILLER_18_57 VGND VGND VPWR VPWR sky130_fd_sc_hd__decap_6
XANTENNA_input46_A chany_top_in[11] VGND VGND VPWR VPWR sky130_fd_sc_hd__diode_2
X_110_ _110_/A VGND VGND VPWR VPWR _110_/X sky130_fd_sc_hd__clkbuf_1
X_041_ VGND VGND VPWR VPWR _041_/HI _041_/LO sky130_fd_sc_hd__conb_1
XFILLER_1_82 VGND VGND VPWR VPWR sky130_fd_sc_hd__decap_12
XFILLER_29_23 VGND VGND VPWR VPWR sky130_fd_sc_hd__decap_12
Xmem_top_track_16.sky130_fd_sc_hd__dfxtp_1_0_ clkbuf_3_3_0_mem_left_track_1.prog_clk/X
+ mux_top_track_14.mux_l2_in_0_/S VGND VGND VPWR VPWR mux_top_track_16.mux_l1_in_1_/S
+ sky130_fd_sc_hd__dfxtp_1
XFILLER_19_132 VGND VGND VPWR VPWR sky130_fd_sc_hd__decap_4
Xmux_top_track_0.sky130_fd_sc_hd__buf_4_0_ mux_top_track_0.mux_l4_in_0_/X VGND VGND
+ VPWR VPWR _097_/A sky130_fd_sc_hd__clkbuf_1
XFILLER_25_113 VGND VGND VPWR VPWR sky130_fd_sc_hd__fill_1
XANTENNA__083__A _083_/A VGND VGND VPWR VPWR sky130_fd_sc_hd__diode_2
XPHY_185 VGND VPWR sky130_fd_sc_hd__tapvpwrvgnd_1
XPHY_174 VGND VPWR sky130_fd_sc_hd__tapvpwrvgnd_1
XPHY_163 VGND VPWR sky130_fd_sc_hd__tapvpwrvgnd_1
Xmux_top_track_0.mux_l2_in_0_ input88/X mux_top_track_0.mux_l1_in_0_/X mux_top_track_0.mux_l2_in_3_/S
+ VGND VGND VPWR VPWR mux_top_track_0.mux_l2_in_0_/X sky130_fd_sc_hd__mux2_1
XPHY_152 VGND VPWR sky130_fd_sc_hd__tapvpwrvgnd_1
Xmux_right_track_8.mux_l2_in_0_ input51/X mux_right_track_8.mux_l1_in_0_/X mux_right_track_8.mux_l2_in_3_/S
+ VGND VGND VPWR VPWR mux_right_track_8.mux_l2_in_0_/X sky130_fd_sc_hd__mux2_1
XPHY_141 VGND VPWR sky130_fd_sc_hd__tapvpwrvgnd_1
XPHY_130 VGND VPWR sky130_fd_sc_hd__tapvpwrvgnd_1
XFILLER_30_182 VGND VGND VPWR VPWR sky130_fd_sc_hd__fill_1
XFILLER_7_70 VGND VGND VPWR VPWR sky130_fd_sc_hd__decap_12
XANTENNA_mux_top_track_22.mux_l1_in_0__A0 _075_/A VGND VGND VPWR VPWR sky130_fd_sc_hd__diode_2
XANTENNA_mux_right_track_4.mux_l1_in_6__A0 _092_/A VGND VGND VPWR VPWR sky130_fd_sc_hd__diode_2
XFILLER_5_9 VGND VGND VPWR VPWR sky130_fd_sc_hd__decap_12
XANTENNA_input76_A right_bottom_grid_pin_13_ VGND VGND VPWR VPWR sky130_fd_sc_hd__diode_2
XANTENNA__091__A _091_/A VGND VGND VPWR VPWR sky130_fd_sc_hd__diode_2
XANTENNA__086__A _086_/A VGND VGND VPWR VPWR sky130_fd_sc_hd__diode_2
X_040_ VGND VGND VPWR VPWR _040_/HI _040_/LO sky130_fd_sc_hd__conb_1
XANTENNA_input39_A chanx_right_in[5] VGND VGND VPWR VPWR sky130_fd_sc_hd__diode_2
Xmux_top_track_38.sky130_fd_sc_hd__buf_4_0_ mux_top_track_38.mux_l2_in_0_/X VGND VGND
+ VPWR VPWR _116_/A sky130_fd_sc_hd__buf_1
XFILLER_1_94 VGND VGND VPWR VPWR sky130_fd_sc_hd__decap_12
XFILLER_29_79 VGND VGND VPWR VPWR sky130_fd_sc_hd__decap_12
XFILLER_29_35 VGND VGND VPWR VPWR sky130_fd_sc_hd__decap_8
XFILLER_28_144 VGND VGND VPWR VPWR sky130_fd_sc_hd__fill_1
XFILLER_28_122 VGND VGND VPWR VPWR sky130_fd_sc_hd__decap_12
XFILLER_19_111 VGND VGND VPWR VPWR sky130_fd_sc_hd__decap_3
XFILLER_6_28 VGND VGND VPWR VPWR sky130_fd_sc_hd__fill_1
XFILLER_31_58 VGND VGND VPWR VPWR sky130_fd_sc_hd__decap_12
XPHY_186 VGND VPWR sky130_fd_sc_hd__tapvpwrvgnd_1
XPHY_175 VGND VPWR sky130_fd_sc_hd__tapvpwrvgnd_1
XPHY_164 VGND VPWR sky130_fd_sc_hd__tapvpwrvgnd_1
XPHY_153 VGND VPWR sky130_fd_sc_hd__tapvpwrvgnd_1
XPHY_142 VGND VPWR sky130_fd_sc_hd__tapvpwrvgnd_1
XPHY_131 VGND VPWR sky130_fd_sc_hd__tapvpwrvgnd_1
XPHY_120 VGND VPWR sky130_fd_sc_hd__tapvpwrvgnd_1
XPHY_0 VGND VGND VPWR VPWR sky130_fd_sc_hd__decap_3
XFILLER_7_82 VGND VGND VPWR VPWR sky130_fd_sc_hd__decap_12
XFILLER_11_5 VGND VGND VPWR VPWR sky130_fd_sc_hd__fill_1
XANTENNA__094__A _094_/A VGND VGND VPWR VPWR sky130_fd_sc_hd__diode_2
XANTENNA_mux_right_track_16.mux_l1_in_1__A0 input80/X VGND VGND VPWR VPWR sky130_fd_sc_hd__diode_2
XANTENNA_mux_right_track_4.mux_l1_in_6__A1 _083_/A VGND VGND VPWR VPWR sky130_fd_sc_hd__diode_2
XANTENNA_input21_A chanx_left_in[7] VGND VGND VPWR VPWR sky130_fd_sc_hd__diode_2
Xmux_right_track_8.mux_l1_in_0_ input63/X input56/X mux_right_track_8.mux_l1_in_0_/S
+ VGND VGND VPWR VPWR mux_right_track_8.mux_l1_in_0_/X sky130_fd_sc_hd__mux2_1
XFILLER_32_201 VGND VGND VPWR VPWR sky130_fd_sc_hd__fill_1
Xmux_top_track_0.mux_l1_in_0_ input86/X input84/X mux_top_track_0.mux_l1_in_0_/S VGND
+ VGND VPWR VPWR mux_top_track_0.mux_l1_in_0_/X sky130_fd_sc_hd__mux2_1
XANTENNA_input69_A left_bottom_grid_pin_1_ VGND VGND VPWR VPWR sky130_fd_sc_hd__diode_2
Xmux_right_track_8.sky130_fd_sc_hd__buf_4_0_ mux_right_track_8.mux_l4_in_0_/X VGND
+ VGND VPWR VPWR _081_/A sky130_fd_sc_hd__clkbuf_1
XFILLER_13_92 VGND VGND VPWR VPWR sky130_fd_sc_hd__fill_2
XFILLER_9_39 VGND VGND VPWR VPWR sky130_fd_sc_hd__fill_2
XANTENNA_mux_top_track_6.mux_l1_in_0__A1 _110_/A VGND VGND VPWR VPWR sky130_fd_sc_hd__diode_2
XFILLER_7_208 VGND VGND VPWR VPWR sky130_fd_sc_hd__decap_3
X_099_ _099_/A VGND VGND VPWR VPWR _099_/X sky130_fd_sc_hd__clkbuf_1
XFILLER_29_58 VGND VGND VPWR VPWR sky130_fd_sc_hd__decap_8
XFILLER_29_47 VGND VGND VPWR VPWR sky130_fd_sc_hd__decap_8
XFILLER_28_134 VGND VGND VPWR VPWR sky130_fd_sc_hd__decap_8
XANTENNA_mux_top_track_4.mux_l1_in_2__A1 _063_/A VGND VGND VPWR VPWR sky130_fd_sc_hd__diode_2
XANTENNA_input51_A chany_top_in[16] VGND VGND VPWR VPWR sky130_fd_sc_hd__diode_2
XFILLER_19_145 VGND VGND VPWR VPWR sky130_fd_sc_hd__decap_4
XFILLER_10_82 VGND VGND VPWR VPWR sky130_fd_sc_hd__decap_4
Xmux_right_track_32.sky130_fd_sc_hd__buf_4_0_ mux_right_track_32.mux_l3_in_0_/X VGND
+ VGND VPWR VPWR _093_/A sky130_fd_sc_hd__clkbuf_1
XPHY_187 VGND VPWR sky130_fd_sc_hd__tapvpwrvgnd_1
XFILLER_31_107 VGND VGND VPWR VPWR sky130_fd_sc_hd__fill_1
XPHY_176 VGND VPWR sky130_fd_sc_hd__tapvpwrvgnd_1
XPHY_165 VGND VPWR sky130_fd_sc_hd__tapvpwrvgnd_1
XPHY_154 VGND VPWR sky130_fd_sc_hd__tapvpwrvgnd_1
XPHY_143 VGND VPWR sky130_fd_sc_hd__tapvpwrvgnd_1
XPHY_132 VGND VPWR sky130_fd_sc_hd__tapvpwrvgnd_1
Xmux_right_track_4.mux_l1_in_6_ _092_/A _083_/A rebuffer2/A VGND VGND VPWR VPWR mux_right_track_4.mux_l1_in_6_/X
+ sky130_fd_sc_hd__mux2_1
XPHY_121 VGND VPWR sky130_fd_sc_hd__tapvpwrvgnd_1
XPHY_110 VGND VPWR sky130_fd_sc_hd__tapvpwrvgnd_1
XFILLER_15_181 VGND VGND VPWR VPWR sky130_fd_sc_hd__decap_8
XPHY_1 VGND VGND VPWR VPWR sky130_fd_sc_hd__decap_3
XFILLER_7_94 VGND VGND VPWR VPWR sky130_fd_sc_hd__decap_12
Xclkbuf_1_0_0_mem_left_track_1.prog_clk clkbuf_0_mem_left_track_1.prog_clk/X VGND
+ VGND VPWR VPWR clkbuf_2_1_0_mem_left_track_1.prog_clk/A sky130_fd_sc_hd__clkbuf_1
XANTENNA_input14_A chanx_left_in[19] VGND VGND VPWR VPWR sky130_fd_sc_hd__diode_2
XFILLER_12_195 VGND VGND VPWR VPWR sky130_fd_sc_hd__decap_4
XFILLER_8_111 VGND VGND VPWR VPWR sky130_fd_sc_hd__decap_12
XFILLER_8_144 VGND VGND VPWR VPWR sky130_fd_sc_hd__decap_12
XANTENNA_input6_A chanx_left_in[11] VGND VGND VPWR VPWR sky130_fd_sc_hd__diode_2
XFILLER_12_39 VGND VGND VPWR VPWR sky130_fd_sc_hd__decap_3
XFILLER_12_28 VGND VGND VPWR VPWR sky130_fd_sc_hd__fill_1
Xmux_left_track_3.mux_l2_in_3_ _047_/HI input67/X mux_left_track_3.mux_l2_in_3_/S
+ VGND VGND VPWR VPWR mux_left_track_3.mux_l2_in_3_/X sky130_fd_sc_hd__mux2_1
Xmem_left_track_1.sky130_fd_sc_hd__dfxtp_1_3_ clkbuf_3_0_0_mem_left_track_1.prog_clk/X
+ mux_left_track_1.mux_l3_in_1_/S VGND VGND VPWR VPWR mux_left_track_1.mux_l4_in_0_/S
+ sky130_fd_sc_hd__dfxtp_1
XFILLER_4_180 VGND VGND VPWR VPWR sky130_fd_sc_hd__decap_12
XFILLER_3_8 VGND VGND VPWR VPWR sky130_fd_sc_hd__decap_12
XANTENNA_input81_A right_bottom_grid_pin_5_ VGND VGND VPWR VPWR sky130_fd_sc_hd__diode_2
XFILLER_1_172 VGND VGND VPWR VPWR sky130_fd_sc_hd__decap_12
X_098_ _098_/A VGND VGND VPWR VPWR _098_/X sky130_fd_sc_hd__clkbuf_1
Xmux_left_track_3.mux_l4_in_0_ mux_left_track_3.mux_l3_in_1_/X mux_left_track_3.mux_l3_in_0_/X
+ mux_left_track_3.mux_l4_in_0_/S VGND VGND VPWR VPWR mux_left_track_3.mux_l4_in_0_/X
+ sky130_fd_sc_hd__mux2_1
XFILLER_1_52 VGND VGND VPWR VPWR sky130_fd_sc_hd__decap_4
XFILLER_1_30 VGND VGND VPWR VPWR sky130_fd_sc_hd__decap_8
XANTENNA_input44_A chany_top_in[0] VGND VGND VPWR VPWR sky130_fd_sc_hd__diode_2
XFILLER_28_168 VGND VGND VPWR VPWR sky130_fd_sc_hd__decap_4
Xmux_right_track_4.mux_l1_in_5_ input78/X input77/X rebuffer2/A VGND VGND VPWR VPWR
+ mux_right_track_4.mux_l1_in_5_/X sky130_fd_sc_hd__mux2_1
XFILLER_0_204 VGND VGND VPWR VPWR sky130_fd_sc_hd__fill_1
XPHY_100 VGND VPWR sky130_fd_sc_hd__tapvpwrvgnd_1
XPHY_188 VGND VPWR sky130_fd_sc_hd__tapvpwrvgnd_1
XANTENNA_mux_top_track_16.mux_l1_in_1__A1 _091_/A VGND VGND VPWR VPWR sky130_fd_sc_hd__diode_2
XPHY_177 VGND VPWR sky130_fd_sc_hd__tapvpwrvgnd_1
XPHY_166 VGND VPWR sky130_fd_sc_hd__tapvpwrvgnd_1
XPHY_155 VGND VPWR sky130_fd_sc_hd__tapvpwrvgnd_1
XPHY_144 VGND VPWR sky130_fd_sc_hd__tapvpwrvgnd_1
XPHY_133 VGND VPWR sky130_fd_sc_hd__tapvpwrvgnd_1
XPHY_122 VGND VPWR sky130_fd_sc_hd__tapvpwrvgnd_1
XANTENNA_mux_right_track_0.mux_l1_in_0__A0 input48/X VGND VGND VPWR VPWR sky130_fd_sc_hd__diode_2
XPHY_111 VGND VPWR sky130_fd_sc_hd__tapvpwrvgnd_1
XPHY_2 VGND VGND VPWR VPWR sky130_fd_sc_hd__decap_3
Xmux_left_track_3.mux_l3_in_1_ mux_left_track_3.mux_l2_in_3_/X mux_left_track_3.mux_l2_in_2_/X
+ mux_left_track_3.mux_l3_in_1_/S VGND VGND VPWR VPWR mux_left_track_3.mux_l3_in_1_/X
+ sky130_fd_sc_hd__mux2_1
XANTENNA_mux_left_track_3.mux_l2_in_1__A1 _071_/A VGND VGND VPWR VPWR sky130_fd_sc_hd__diode_2
XFILLER_26_16 VGND VGND VPWR VPWR sky130_fd_sc_hd__fill_1
Xmux_left_track_5.sky130_fd_sc_hd__buf_4_0_ mux_left_track_5.mux_l4_in_0_/X VGND VGND
+ VPWR VPWR _059_/A sky130_fd_sc_hd__clkbuf_1
XFILLER_12_163 VGND VGND VPWR VPWR sky130_fd_sc_hd__fill_2
XFILLER_8_123 VGND VGND VPWR VPWR sky130_fd_sc_hd__decap_12
XFILLER_8_156 VGND VGND VPWR VPWR sky130_fd_sc_hd__decap_12
XFILLER_5_115 VGND VGND VPWR VPWR sky130_fd_sc_hd__decap_12
Xmux_left_track_3.mux_l2_in_2_ input65/X input72/X mux_left_track_3.mux_l2_in_3_/S
+ VGND VGND VPWR VPWR mux_left_track_3.mux_l2_in_2_/X sky130_fd_sc_hd__mux2_1
Xmem_left_track_1.sky130_fd_sc_hd__dfxtp_1_2_ clkbuf_3_0_0_mem_left_track_1.prog_clk/X
+ mux_left_track_1.mux_l2_in_3_/S VGND VGND VPWR VPWR mux_left_track_1.mux_l3_in_1_/S
+ sky130_fd_sc_hd__dfxtp_1
XFILLER_4_30 VGND VGND VPWR VPWR sky130_fd_sc_hd__decap_12
XFILLER_4_192 VGND VGND VPWR VPWR sky130_fd_sc_hd__decap_8
XFILLER_1_184 VGND VGND VPWR VPWR sky130_fd_sc_hd__decap_12
XFILLER_1_151 VGND VGND VPWR VPWR sky130_fd_sc_hd__decap_4
XANTENNA_input74_A prog_clk_3_S_in VGND VGND VPWR VPWR sky130_fd_sc_hd__diode_2
XFILLER_24_71 VGND VGND VPWR VPWR sky130_fd_sc_hd__decap_3
Xmux_right_track_4.mux_l2_in_3_ _028_/HI mux_right_track_4.mux_l1_in_6_/X mux_right_track_4.mux_l2_in_3_/S
+ VGND VGND VPWR VPWR mux_right_track_4.mux_l2_in_3_/X sky130_fd_sc_hd__mux2_1
X_097_ _097_/A VGND VGND VPWR VPWR _097_/X sky130_fd_sc_hd__buf_1