* NGSPICE file created from sb_1__2_.ext - technology: sky130A

* Black-box entry subcircuit for sky130_fd_sc_hd__fill_2 abstract view
.subckt sky130_fd_sc_hd__fill_2 VGND VNB VPB VPWR
.ends

* Black-box entry subcircuit for sky130_fd_sc_hd__dfxtp_1 abstract view
.subckt sky130_fd_sc_hd__dfxtp_1 CLK D VGND VNB VPB VPWR Q
.ends

* Black-box entry subcircuit for sky130_fd_sc_hd__mux2_1 abstract view
.subckt sky130_fd_sc_hd__mux2_1 A0 A1 S VGND VNB VPB VPWR X
.ends

* Black-box entry subcircuit for sky130_fd_sc_hd__decap_3 abstract view
.subckt sky130_fd_sc_hd__decap_3 VGND VNB VPB VPWR
.ends

* Black-box entry subcircuit for sky130_fd_sc_hd__diode_2 abstract view
.subckt sky130_fd_sc_hd__diode_2 DIODE VGND VNB VPB VPWR
.ends

* Black-box entry subcircuit for sky130_fd_sc_hd__clkbuf_1 abstract view
.subckt sky130_fd_sc_hd__clkbuf_1 A VGND VNB VPB VPWR X
.ends

* Black-box entry subcircuit for sky130_fd_sc_hd__dfxtp_2 abstract view
.subckt sky130_fd_sc_hd__dfxtp_2 CLK D VGND VNB VPB VPWR Q
.ends

* Black-box entry subcircuit for sky130_fd_sc_hd__fill_1 abstract view
.subckt sky130_fd_sc_hd__fill_1 VGND VNB VPB VPWR
.ends

* Black-box entry subcircuit for sky130_fd_sc_hd__decap_4 abstract view
.subckt sky130_fd_sc_hd__decap_4 VGND VNB VPB VPWR
.ends

* Black-box entry subcircuit for sky130_fd_sc_hd__decap_8 abstract view
.subckt sky130_fd_sc_hd__decap_8 VGND VNB VPB VPWR
.ends

* Black-box entry subcircuit for sky130_fd_sc_hd__conb_1 abstract view
.subckt sky130_fd_sc_hd__conb_1 VGND VNB VPB VPWR HI LO
.ends

* Black-box entry subcircuit for sky130_fd_sc_hd__decap_6 abstract view
.subckt sky130_fd_sc_hd__decap_6 VGND VNB VPB VPWR
.ends

* Black-box entry subcircuit for sky130_fd_sc_hd__clkbuf_2 abstract view
.subckt sky130_fd_sc_hd__clkbuf_2 A VGND VNB VPB VPWR X
.ends

* Black-box entry subcircuit for sky130_fd_sc_hd__tapvpwrvgnd_1 abstract view
.subckt sky130_fd_sc_hd__tapvpwrvgnd_1 VGND VPWR
.ends

* Black-box entry subcircuit for sky130_fd_sc_hd__decap_12 abstract view
.subckt sky130_fd_sc_hd__decap_12 VGND VNB VPB VPWR
.ends

* Black-box entry subcircuit for sky130_fd_sc_hd__buf_8 abstract view
.subckt sky130_fd_sc_hd__buf_8 A VGND VNB VPB VPWR X
.ends

* Black-box entry subcircuit for sky130_fd_sc_hd__buf_1 abstract view
.subckt sky130_fd_sc_hd__buf_1 A VGND VNB VPB VPWR X
.ends

* Black-box entry subcircuit for sky130_fd_sc_hd__dlymetal6s2s_1 abstract view
.subckt sky130_fd_sc_hd__dlymetal6s2s_1 A VGND VNB VPB VPWR X
.ends

* Black-box entry subcircuit for sky130_fd_sc_hd__clkbuf_16 abstract view
.subckt sky130_fd_sc_hd__clkbuf_16 A VGND VNB VPB VPWR X
.ends

.subckt sb_1__2_ SC_IN_BOT SC_OUT_BOT bottom_left_grid_pin_42_ bottom_left_grid_pin_43_
+ bottom_left_grid_pin_44_ bottom_left_grid_pin_45_ bottom_left_grid_pin_46_ bottom_left_grid_pin_47_
+ bottom_left_grid_pin_48_ bottom_left_grid_pin_49_ ccff_head ccff_tail chanx_left_in[0]
+ chanx_left_in[10] chanx_left_in[11] chanx_left_in[12] chanx_left_in[13] chanx_left_in[14]
+ chanx_left_in[15] chanx_left_in[16] chanx_left_in[17] chanx_left_in[18] chanx_left_in[19]
+ chanx_left_in[1] chanx_left_in[2] chanx_left_in[3] chanx_left_in[4] chanx_left_in[5]
+ chanx_left_in[6] chanx_left_in[7] chanx_left_in[8] chanx_left_in[9] chanx_left_out[0]
+ chanx_left_out[10] chanx_left_out[11] chanx_left_out[12] chanx_left_out[13] chanx_left_out[14]
+ chanx_left_out[15] chanx_left_out[16] chanx_left_out[17] chanx_left_out[18] chanx_left_out[19]
+ chanx_left_out[1] chanx_left_out[2] chanx_left_out[3] chanx_left_out[4] chanx_left_out[5]
+ chanx_left_out[6] chanx_left_out[7] chanx_left_out[8] chanx_left_out[9] chanx_right_in[0]
+ chanx_right_in[10] chanx_right_in[11] chanx_right_in[12] chanx_right_in[13] chanx_right_in[14]
+ chanx_right_in[15] chanx_right_in[16] chanx_right_in[17] chanx_right_in[18] chanx_right_in[19]
+ chanx_right_in[1] chanx_right_in[2] chanx_right_in[3] chanx_right_in[4] chanx_right_in[5]
+ chanx_right_in[6] chanx_right_in[7] chanx_right_in[8] chanx_right_in[9] chanx_right_out[0]
+ chanx_right_out[10] chanx_right_out[11] chanx_right_out[12] chanx_right_out[13]
+ chanx_right_out[14] chanx_right_out[15] chanx_right_out[16] chanx_right_out[17]
+ chanx_right_out[18] chanx_right_out[19] chanx_right_out[1] chanx_right_out[2] chanx_right_out[3]
+ chanx_right_out[4] chanx_right_out[5] chanx_right_out[6] chanx_right_out[7] chanx_right_out[8]
+ chanx_right_out[9] chany_bottom_in[0] chany_bottom_in[10] chany_bottom_in[11] chany_bottom_in[12]
+ chany_bottom_in[13] chany_bottom_in[14] chany_bottom_in[15] chany_bottom_in[16]
+ chany_bottom_in[17] chany_bottom_in[18] chany_bottom_in[19] chany_bottom_in[1] chany_bottom_in[2]
+ chany_bottom_in[3] chany_bottom_in[4] chany_bottom_in[5] chany_bottom_in[6] chany_bottom_in[7]
+ chany_bottom_in[8] chany_bottom_in[9] chany_bottom_out[0] chany_bottom_out[10] chany_bottom_out[11]
+ chany_bottom_out[12] chany_bottom_out[13] chany_bottom_out[14] chany_bottom_out[15]
+ chany_bottom_out[16] chany_bottom_out[17] chany_bottom_out[18] chany_bottom_out[19]
+ chany_bottom_out[1] chany_bottom_out[2] chany_bottom_out[3] chany_bottom_out[4]
+ chany_bottom_out[5] chany_bottom_out[6] chany_bottom_out[7] chany_bottom_out[8]
+ chany_bottom_out[9] left_bottom_grid_pin_34_ left_bottom_grid_pin_35_ left_bottom_grid_pin_36_
+ left_bottom_grid_pin_37_ left_bottom_grid_pin_38_ left_bottom_grid_pin_39_ left_bottom_grid_pin_40_
+ left_bottom_grid_pin_41_ left_top_grid_pin_1_ prog_clk_0_S_in right_bottom_grid_pin_34_
+ right_bottom_grid_pin_35_ right_bottom_grid_pin_36_ right_bottom_grid_pin_37_ right_bottom_grid_pin_38_
+ right_bottom_grid_pin_39_ right_bottom_grid_pin_40_ right_bottom_grid_pin_41_ right_top_grid_pin_1_
+ VPWR VGND
XFILLER_22_144 VGND VGND VPWR VPWR sky130_fd_sc_hd__fill_2
XFILLER_22_155 VGND VGND VPWR VPWR sky130_fd_sc_hd__fill_2
Xmem_right_track_2.sky130_fd_sc_hd__dfxtp_1_0_ clkbuf_3_7_0_mem_bottom_track_1.prog_clk/X
+ mux_right_track_0.mux_l4_in_0_/S VGND VGND VPWR VPWR mux_right_track_2.mux_l1_in_1_/S
+ sky130_fd_sc_hd__dfxtp_1
XFILLER_13_133 VGND VGND VPWR VPWR sky130_fd_sc_hd__fill_2
XFILLER_9_104 VGND VGND VPWR VPWR sky130_fd_sc_hd__fill_2
XFILLER_9_137 VGND VGND VPWR VPWR sky130_fd_sc_hd__fill_2
Xmux_bottom_track_3.mux_l1_in_1_ input7/X input5/X mux_bottom_track_3.mux_l1_in_3_/S
+ VGND VGND VPWR VPWR mux_bottom_track_3.mux_l1_in_1_/X sky130_fd_sc_hd__mux2_1
Xmem_left_track_17.sky130_fd_sc_hd__dfxtp_1_0_ clkbuf_3_2_0_mem_bottom_track_1.prog_clk/X
+ mux_left_track_9.mux_l4_in_0_/S VGND VGND VPWR VPWR mux_left_track_17.mux_l1_in_3_/S
+ sky130_fd_sc_hd__dfxtp_1
XFILLER_8_170 VGND VGND VPWR VPWR sky130_fd_sc_hd__decap_3
XANTENNA_mux_bottom_track_11.mux_l1_in_0__A0 input3/X VGND VGND VPWR VPWR sky130_fd_sc_hd__diode_2
XFILLER_10_125 VGND VGND VPWR VPWR sky130_fd_sc_hd__fill_2
XFILLER_10_136 VGND VGND VPWR VPWR sky130_fd_sc_hd__fill_2
XFILLER_12_87 VGND VGND VPWR VPWR sky130_fd_sc_hd__fill_2
XFILLER_12_98 VGND VGND VPWR VPWR sky130_fd_sc_hd__fill_2
X_062_ _062_/A VGND VGND VPWR VPWR _062_/X sky130_fd_sc_hd__clkbuf_1
XFILLER_2_187 VGND VGND VPWR VPWR sky130_fd_sc_hd__fill_2
XFILLER_2_176 VGND VGND VPWR VPWR sky130_fd_sc_hd__fill_2
XFILLER_2_165 VGND VGND VPWR VPWR sky130_fd_sc_hd__fill_2
XANTENNA_input55_A chany_bottom_in[13] VGND VGND VPWR VPWR sky130_fd_sc_hd__diode_2
XANTENNA_mux_left_track_33.mux_l1_in_2__A1 input73/X VGND VGND VPWR VPWR sky130_fd_sc_hd__diode_2
Xmem_right_track_8.sky130_fd_sc_hd__dfxtp_1_1_ clkbuf_3_7_0_mem_bottom_track_1.prog_clk/X
+ mux_right_track_8.mux_l1_in_0_/S VGND VGND VPWR VPWR mux_right_track_8.mux_l2_in_3_/S
+ sky130_fd_sc_hd__dfxtp_2
XFILLER_0_57 VGND VGND VPWR VPWR sky130_fd_sc_hd__fill_1
XFILLER_17_9 VGND VGND VPWR VPWR sky130_fd_sc_hd__decap_4
XFILLER_9_22 VGND VGND VPWR VPWR sky130_fd_sc_hd__fill_2
XFILLER_9_88 VGND VGND VPWR VPWR sky130_fd_sc_hd__fill_2
XFILLER_18_64 VGND VGND VPWR VPWR sky130_fd_sc_hd__fill_2
XFILLER_18_75 VGND VGND VPWR VPWR sky130_fd_sc_hd__decap_8
X_114_ _114_/A VGND VGND VPWR VPWR _114_/X sky130_fd_sc_hd__clkbuf_1
X_045_ VGND VGND VPWR VPWR _045_/HI _045_/LO sky130_fd_sc_hd__conb_1
Xmem_bottom_track_25.sky130_fd_sc_hd__dfxtp_1_2_ clkbuf_3_5_0_mem_bottom_track_1.prog_clk/X
+ mux_bottom_track_25.mux_l2_in_1_/S VGND VGND VPWR VPWR mux_bottom_track_25.mux_l3_in_0_/S
+ sky130_fd_sc_hd__dfxtp_1
Xmux_bottom_track_17.mux_l1_in_0_ input6/X _071_/A mux_bottom_track_17.mux_l1_in_1_/S
+ VGND VGND VPWR VPWR mux_bottom_track_17.mux_l1_in_0_/X sky130_fd_sc_hd__mux2_1
XFILLER_4_216 VGND VGND VPWR VPWR sky130_fd_sc_hd__fill_1
XFILLER_20_76 VGND VGND VPWR VPWR sky130_fd_sc_hd__decap_4
XFILLER_20_87 VGND VGND VPWR VPWR sky130_fd_sc_hd__decap_6
XANTENNA_input18_A chanx_left_in[16] VGND VGND VPWR VPWR sky130_fd_sc_hd__diode_2
XFILLER_6_67 VGND VGND VPWR VPWR sky130_fd_sc_hd__fill_1
X_028_ VGND VGND VPWR VPWR _028_/HI _028_/LO sky130_fd_sc_hd__conb_1
XFILLER_13_3 VGND VGND VPWR VPWR sky130_fd_sc_hd__fill_1
XFILLER_19_172 VGND VGND VPWR VPWR sky130_fd_sc_hd__fill_2
XFILLER_25_175 VGND VGND VPWR VPWR sky130_fd_sc_hd__fill_2
XFILLER_15_54 VGND VGND VPWR VPWR sky130_fd_sc_hd__decap_3
Xoutput97 _072_/X VGND VGND VPWR VPWR chanx_left_out[15] sky130_fd_sc_hd__clkbuf_2
Xmux_bottom_track_3.sky130_fd_sc_hd__buf_4_0_ mux_bottom_track_3.mux_l3_in_0_/X VGND
+ VGND VPWR VPWR _098_/A sky130_fd_sc_hd__clkbuf_1
XPHY_170 VGND VPWR sky130_fd_sc_hd__tapvpwrvgnd_1
XPHY_192 VGND VPWR sky130_fd_sc_hd__tapvpwrvgnd_1
XPHY_181 VGND VPWR sky130_fd_sc_hd__tapvpwrvgnd_1
XANTENNA_mux_right_track_0.mux_l2_in_3__A1 _090_/A VGND VGND VPWR VPWR sky130_fd_sc_hd__diode_2
XFILLER_26_64 VGND VGND VPWR VPWR sky130_fd_sc_hd__decap_8
XFILLER_13_156 VGND VGND VPWR VPWR sky130_fd_sc_hd__decap_3
XFILLER_9_149 VGND VGND VPWR VPWR sky130_fd_sc_hd__fill_2
XANTENNA_input85_A right_bottom_grid_pin_39_ VGND VGND VPWR VPWR sky130_fd_sc_hd__diode_2
Xmux_bottom_track_3.mux_l1_in_0_ input3/X _062_/A mux_bottom_track_3.mux_l1_in_3_/S
+ VGND VGND VPWR VPWR mux_bottom_track_3.mux_l1_in_0_/X sky130_fd_sc_hd__mux2_1
XFILLER_8_182 VGND VGND VPWR VPWR sky130_fd_sc_hd__fill_2
XFILLER_27_215 VGND VGND VPWR VPWR sky130_fd_sc_hd__fill_2
XANTENNA_mux_bottom_track_11.mux_l1_in_0__A1 _067_/A VGND VGND VPWR VPWR sky130_fd_sc_hd__diode_2
Xclkbuf_1_0_0_mem_bottom_track_1.prog_clk clkbuf_0_mem_bottom_track_1.prog_clk/X VGND
+ VGND VPWR VPWR clkbuf_2_1_0_mem_bottom_track_1.prog_clk/A sky130_fd_sc_hd__clkbuf_1
XFILLER_12_66 VGND VGND VPWR VPWR sky130_fd_sc_hd__fill_2
XFILLER_12_77 VGND VGND VPWR VPWR sky130_fd_sc_hd__decap_4
XFILLER_5_174 VGND VGND VPWR VPWR sky130_fd_sc_hd__decap_4
XFILLER_23_54 VGND VGND VPWR VPWR sky130_fd_sc_hd__decap_3
X_061_ _061_/A VGND VGND VPWR VPWR _061_/X sky130_fd_sc_hd__clkbuf_1
XFILLER_23_76 VGND VGND VPWR VPWR sky130_fd_sc_hd__fill_2
XANTENNA_input48_A chanx_right_in[7] VGND VGND VPWR VPWR sky130_fd_sc_hd__diode_2
Xmem_right_track_8.sky130_fd_sc_hd__dfxtp_1_0_ clkbuf_3_7_0_mem_bottom_track_1.prog_clk/X
+ mux_right_track_4.mux_l4_in_0_/S VGND VGND VPWR VPWR mux_right_track_8.mux_l1_in_0_/S
+ sky130_fd_sc_hd__dfxtp_1
XFILLER_0_25 VGND VGND VPWR VPWR sky130_fd_sc_hd__decap_4
XFILLER_0_36 VGND VGND VPWR VPWR sky130_fd_sc_hd__decap_3
XFILLER_0_69 VGND VGND VPWR VPWR sky130_fd_sc_hd__fill_2
XFILLER_20_221 VGND VGND VPWR VPWR sky130_fd_sc_hd__fill_2
Xmux_left_track_9.sky130_fd_sc_hd__buf_4_0_ mux_left_track_9.mux_l4_in_0_/X VGND VGND
+ VPWR VPWR _061_/A sky130_fd_sc_hd__clkbuf_1
XFILLER_18_32 VGND VGND VPWR VPWR sky130_fd_sc_hd__fill_2
XFILLER_18_87 VGND VGND VPWR VPWR sky130_fd_sc_hd__decap_3
X_113_ _113_/A VGND VGND VPWR VPWR _113_/X sky130_fd_sc_hd__clkbuf_1
XFILLER_7_203 VGND VGND VPWR VPWR sky130_fd_sc_hd__fill_2
XFILLER_11_221 VGND VGND VPWR VPWR sky130_fd_sc_hd__fill_2
X_044_ VGND VGND VPWR VPWR _044_/HI _044_/LO sky130_fd_sc_hd__conb_1
Xmem_bottom_track_25.sky130_fd_sc_hd__dfxtp_1_1_ clkbuf_3_7_0_mem_bottom_track_1.prog_clk/X
+ mux_bottom_track_25.mux_l1_in_0_/S VGND VGND VPWR VPWR mux_bottom_track_25.mux_l2_in_1_/S
+ sky130_fd_sc_hd__dfxtp_1
XFILLER_29_42 VGND VGND VPWR VPWR sky130_fd_sc_hd__fill_2
XFILLER_29_31 VGND VGND VPWR VPWR sky130_fd_sc_hd__fill_2
XFILLER_29_20 VGND VGND VPWR VPWR sky130_fd_sc_hd__fill_2
XFILLER_28_140 VGND VGND VPWR VPWR sky130_fd_sc_hd__decap_3
XFILLER_25_132 VGND VGND VPWR VPWR sky130_fd_sc_hd__decap_12
XFILLER_25_187 VGND VGND VPWR VPWR sky130_fd_sc_hd__fill_2
XFILLER_31_76 VGND VGND VPWR VPWR sky130_fd_sc_hd__fill_2
XFILLER_15_88 VGND VGND VPWR VPWR sky130_fd_sc_hd__decap_3
Xoutput98 _073_/X VGND VGND VPWR VPWR chanx_left_out[16] sky130_fd_sc_hd__clkbuf_2
Xmux_right_track_8.mux_l2_in_3_ _043_/HI _094_/A mux_right_track_8.mux_l2_in_3_/S
+ VGND VGND VPWR VPWR mux_right_track_8.mux_l2_in_3_/X sky130_fd_sc_hd__mux2_1
XANTENNA_input30_A chanx_left_in[9] VGND VGND VPWR VPWR sky130_fd_sc_hd__diode_2
XFILLER_16_110 VGND VGND VPWR VPWR sky130_fd_sc_hd__fill_1
XPHY_193 VGND VPWR sky130_fd_sc_hd__tapvpwrvgnd_1
XFILLER_31_168 VGND VGND VPWR VPWR sky130_fd_sc_hd__decap_3
XPHY_182 VGND VPWR sky130_fd_sc_hd__tapvpwrvgnd_1
XPHY_171 VGND VPWR sky130_fd_sc_hd__tapvpwrvgnd_1
XFILLER_16_198 VGND VGND VPWR VPWR sky130_fd_sc_hd__fill_2
XPHY_160 VGND VPWR sky130_fd_sc_hd__tapvpwrvgnd_1
Xmux_left_track_25.sky130_fd_sc_hd__buf_4_0_ mux_left_track_25.mux_l3_in_0_/X VGND
+ VGND VPWR VPWR _069_/A sky130_fd_sc_hd__clkbuf_1
XFILLER_22_113 VGND VGND VPWR VPWR sky130_fd_sc_hd__decap_3
Xmem_bottom_track_3.sky130_fd_sc_hd__dfxtp_1_2_ clkbuf_3_0_0_mem_bottom_track_1.prog_clk/X
+ mux_bottom_track_3.mux_l2_in_1_/S VGND VGND VPWR VPWR mux_bottom_track_3.mux_l3_in_0_/S
+ sky130_fd_sc_hd__dfxtp_1
XFILLER_26_32 VGND VGND VPWR VPWR sky130_fd_sc_hd__fill_2
XFILLER_26_87 VGND VGND VPWR VPWR sky130_fd_sc_hd__decap_12
XFILLER_9_117 VGND VGND VPWR VPWR sky130_fd_sc_hd__decap_4
XFILLER_13_113 VGND VGND VPWR VPWR sky130_fd_sc_hd__fill_1
XFILLER_13_168 VGND VGND VPWR VPWR sky130_fd_sc_hd__decap_3
XANTENNA_input78_A left_bottom_grid_pin_41_ VGND VGND VPWR VPWR sky130_fd_sc_hd__diode_2
XFILLER_3_58 VGND VGND VPWR VPWR sky130_fd_sc_hd__fill_2
XFILLER_3_36 VGND VGND VPWR VPWR sky130_fd_sc_hd__decap_4
Xclkbuf_3_4_0_mem_bottom_track_1.prog_clk clkbuf_3_5_0_mem_bottom_track_1.prog_clk/A
+ VGND VGND VPWR VPWR clkbuf_3_4_0_mem_bottom_track_1.prog_clk/X sky130_fd_sc_hd__clkbuf_1
XANTENNA_mux_bottom_track_1.mux_l1_in_3__A1 _080_/A VGND VGND VPWR VPWR sky130_fd_sc_hd__diode_2
XFILLER_27_205 VGND VGND VPWR VPWR sky130_fd_sc_hd__fill_2
XFILLER_5_6 VGND VGND VPWR VPWR sky130_fd_sc_hd__fill_2
XFILLER_18_216 VGND VGND VPWR VPWR sky130_fd_sc_hd__fill_1
XFILLER_5_164 VGND VGND VPWR VPWR sky130_fd_sc_hd__fill_2
Xmux_right_track_8.mux_l4_in_0_ mux_right_track_8.mux_l3_in_1_/X mux_right_track_8.mux_l3_in_0_/X
+ mux_right_track_8.mux_l4_in_0_/S VGND VGND VPWR VPWR mux_right_track_8.mux_l4_in_0_/X
+ sky130_fd_sc_hd__mux2_1
XFILLER_3_3 VGND VGND VPWR VPWR sky130_fd_sc_hd__fill_1
XFILLER_2_134 VGND VGND VPWR VPWR sky130_fd_sc_hd__fill_2
XFILLER_2_123 VGND VGND VPWR VPWR sky130_fd_sc_hd__fill_2
XFILLER_2_112 VGND VGND VPWR VPWR sky130_fd_sc_hd__fill_2
X_060_ _060_/A VGND VGND VPWR VPWR _060_/X sky130_fd_sc_hd__clkbuf_1
XFILLER_0_15 VGND VGND VPWR VPWR sky130_fd_sc_hd__fill_2
XFILLER_0_48 VGND VGND VPWR VPWR sky130_fd_sc_hd__fill_2
XFILLER_0_59 VGND VGND VPWR VPWR sky130_fd_sc_hd__fill_2
XFILLER_9_68 VGND VGND VPWR VPWR sky130_fd_sc_hd__decap_4
XFILLER_18_99 VGND VGND VPWR VPWR sky130_fd_sc_hd__decap_8
X_043_ VGND VGND VPWR VPWR _043_/HI _043_/LO sky130_fd_sc_hd__conb_1
X_112_ _112_/A VGND VGND VPWR VPWR _112_/X sky130_fd_sc_hd__clkbuf_1
XANTENNA_input60_A chany_bottom_in[18] VGND VGND VPWR VPWR sky130_fd_sc_hd__diode_2
XFILLER_22_9 VGND VGND VPWR VPWR sky130_fd_sc_hd__decap_4
Xmux_right_track_8.mux_l3_in_1_ mux_right_track_8.mux_l2_in_3_/X mux_right_track_8.mux_l2_in_2_/X
+ mux_right_track_8.mux_l3_in_1_/S VGND VGND VPWR VPWR mux_right_track_8.mux_l3_in_1_/X
+ sky130_fd_sc_hd__mux2_1
Xmem_bottom_track_25.sky130_fd_sc_hd__dfxtp_1_0_ clkbuf_3_5_0_mem_bottom_track_1.prog_clk/X
+ mux_bottom_track_23.mux_l2_in_0_/S VGND VGND VPWR VPWR mux_bottom_track_25.mux_l1_in_0_/S
+ sky130_fd_sc_hd__dfxtp_1
XFILLER_1_91 VGND VGND VPWR VPWR sky130_fd_sc_hd__fill_2
XFILLER_20_23 VGND VGND VPWR VPWR sky130_fd_sc_hd__fill_2
XFILLER_29_54 VGND VGND VPWR VPWR sky130_fd_sc_hd__decap_3
XFILLER_19_185 VGND VGND VPWR VPWR sky130_fd_sc_hd__fill_2
XFILLER_19_196 VGND VGND VPWR VPWR sky130_fd_sc_hd__fill_2
XFILLER_25_144 VGND VGND VPWR VPWR sky130_fd_sc_hd__decap_12
XFILLER_31_66 VGND VGND VPWR VPWR sky130_fd_sc_hd__fill_1
Xoutput99 _074_/X VGND VGND VPWR VPWR chanx_left_out[17] sky130_fd_sc_hd__clkbuf_2
XFILLER_0_221 VGND VGND VPWR VPWR sky130_fd_sc_hd__fill_2
Xmux_right_track_8.mux_l2_in_2_ _084_/A input58/X mux_right_track_8.mux_l2_in_3_/S
+ VGND VGND VPWR VPWR mux_right_track_8.mux_l2_in_2_/X sky130_fd_sc_hd__mux2_1
XANTENNA_input23_A chanx_left_in[2] VGND VGND VPWR VPWR sky130_fd_sc_hd__diode_2
XFILLER_16_144 VGND VGND VPWR VPWR sky130_fd_sc_hd__decap_6
XPHY_183 VGND VPWR sky130_fd_sc_hd__tapvpwrvgnd_1
XPHY_172 VGND VPWR sky130_fd_sc_hd__tapvpwrvgnd_1
XFILLER_16_177 VGND VGND VPWR VPWR sky130_fd_sc_hd__fill_2
XFILLER_16_188 VGND VGND VPWR VPWR sky130_fd_sc_hd__decap_3
XPHY_150 VGND VPWR sky130_fd_sc_hd__tapvpwrvgnd_1
XPHY_161 VGND VPWR sky130_fd_sc_hd__tapvpwrvgnd_1
Xmem_bottom_track_3.sky130_fd_sc_hd__dfxtp_1_1_ clkbuf_3_0_0_mem_bottom_track_1.prog_clk/X
+ mux_bottom_track_3.mux_l1_in_3_/S VGND VGND VPWR VPWR mux_bottom_track_3.mux_l2_in_1_/S
+ sky130_fd_sc_hd__dfxtp_1
XFILLER_26_99 VGND VGND VPWR VPWR sky130_fd_sc_hd__decap_4
XFILLER_21_180 VGND VGND VPWR VPWR sky130_fd_sc_hd__fill_2
XFILLER_21_191 VGND VGND VPWR VPWR sky130_fd_sc_hd__fill_2
XANTENNA__064__A _064_/A VGND VGND VPWR VPWR sky130_fd_sc_hd__diode_2
XFILLER_33_209 VGND VGND VPWR VPWR sky130_fd_sc_hd__fill_2
XFILLER_24_209 VGND VGND VPWR VPWR sky130_fd_sc_hd__fill_2
XANTENNA_mux_bottom_track_7.mux_l1_in_0__A0 input3/X VGND VGND VPWR VPWR sky130_fd_sc_hd__diode_2
XFILLER_23_34 VGND VGND VPWR VPWR sky130_fd_sc_hd__decap_12
XFILLER_2_146 VGND VGND VPWR VPWR sky130_fd_sc_hd__decap_3
Xprog_clk_0_FTB00 prog_clk_0_S_in VGND VGND VPWR VPWR prog_clk_0_FTB00/X sky130_fd_sc_hd__buf_8
Xmem_bottom_track_9.sky130_fd_sc_hd__dfxtp_1_2_ clkbuf_3_1_0_mem_bottom_track_1.prog_clk/X
+ mux_bottom_track_9.mux_l2_in_1_/S VGND VGND VPWR VPWR mux_bottom_track_9.mux_l3_in_0_/S
+ sky130_fd_sc_hd__dfxtp_1
XFILLER_29_3 VGND VGND VPWR VPWR sky130_fd_sc_hd__fill_2
XFILLER_20_201 VGND VGND VPWR VPWR sky130_fd_sc_hd__fill_2
XFILLER_20_212 VGND VGND VPWR VPWR sky130_fd_sc_hd__decap_4
XFILLER_18_23 VGND VGND VPWR VPWR sky130_fd_sc_hd__fill_2
X_111_ _111_/A VGND VGND VPWR VPWR _111_/X sky130_fd_sc_hd__clkbuf_1
XANTENNA_mux_bottom_track_5.mux_l1_in_2__A0 _083_/A VGND VGND VPWR VPWR sky130_fd_sc_hd__diode_2
X_042_ VGND VGND VPWR VPWR _042_/HI _042_/LO sky130_fd_sc_hd__conb_1
XANTENNA_input53_A chany_bottom_in[11] VGND VGND VPWR VPWR sky130_fd_sc_hd__diode_2
XFILLER_15_9 VGND VGND VPWR VPWR sky130_fd_sc_hd__fill_2
Xmux_right_track_8.mux_l3_in_0_ mux_right_track_8.mux_l2_in_1_/X mux_right_track_8.mux_l2_in_0_/X
+ mux_right_track_8.mux_l3_in_1_/S VGND VGND VPWR VPWR mux_right_track_8.mux_l3_in_0_/X
+ sky130_fd_sc_hd__mux2_1
XANTENNA__072__A _072_/A VGND VGND VPWR VPWR sky130_fd_sc_hd__diode_2
XFILLER_20_13 VGND VGND VPWR VPWR sky130_fd_sc_hd__fill_1
XFILLER_20_35 VGND VGND VPWR VPWR sky130_fd_sc_hd__decap_4
XFILLER_29_66 VGND VGND VPWR VPWR sky130_fd_sc_hd__decap_3
XFILLER_28_175 VGND VGND VPWR VPWR sky130_fd_sc_hd__fill_1
XFILLER_6_48 VGND VGND VPWR VPWR sky130_fd_sc_hd__fill_2
XFILLER_19_153 VGND VGND VPWR VPWR sky130_fd_sc_hd__fill_1
XANTENNA_mux_bottom_track_13.mux_l1_in_1__A1 _088_/A VGND VGND VPWR VPWR sky130_fd_sc_hd__diode_2
XANTENNA__067__A _067_/A VGND VGND VPWR VPWR sky130_fd_sc_hd__diode_2
XFILLER_15_24 VGND VGND VPWR VPWR sky130_fd_sc_hd__fill_2
XFILLER_15_46 VGND VGND VPWR VPWR sky130_fd_sc_hd__fill_2
XFILLER_25_156 VGND VGND VPWR VPWR sky130_fd_sc_hd__decap_12
XFILLER_31_45 VGND VGND VPWR VPWR sky130_fd_sc_hd__decap_12
Xoutput89 _056_/X VGND VGND VPWR VPWR SC_OUT_BOT sky130_fd_sc_hd__clkbuf_2
XFILLER_31_115 VGND VGND VPWR VPWR sky130_fd_sc_hd__decap_12
Xmux_right_track_8.mux_l2_in_1_ input70/X input63/X mux_right_track_8.mux_l2_in_3_/S
+ VGND VGND VPWR VPWR mux_right_track_8.mux_l2_in_1_/X sky130_fd_sc_hd__mux2_1
XANTENNA_input16_A chanx_left_in[14] VGND VGND VPWR VPWR sky130_fd_sc_hd__diode_2
XFILLER_16_156 VGND VGND VPWR VPWR sky130_fd_sc_hd__fill_1
XPHY_184 VGND VPWR sky130_fd_sc_hd__tapvpwrvgnd_1
XFILLER_31_148 VGND VGND VPWR VPWR sky130_fd_sc_hd__decap_12
XPHY_173 VGND VPWR sky130_fd_sc_hd__tapvpwrvgnd_1
XPHY_162 VGND VPWR sky130_fd_sc_hd__tapvpwrvgnd_1
XPHY_140 VGND VPWR sky130_fd_sc_hd__tapvpwrvgnd_1
XPHY_151 VGND VPWR sky130_fd_sc_hd__tapvpwrvgnd_1
Xmem_bottom_track_3.sky130_fd_sc_hd__dfxtp_1_0_ clkbuf_3_1_0_mem_bottom_track_1.prog_clk/X
+ mux_bottom_track_1.mux_l3_in_0_/S VGND VGND VPWR VPWR mux_bottom_track_3.mux_l1_in_3_/S
+ sky130_fd_sc_hd__dfxtp_1
XANTENNA_input8_A bottom_left_grid_pin_48_ VGND VGND VPWR VPWR sky130_fd_sc_hd__diode_2
XFILLER_26_56 VGND VGND VPWR VPWR sky130_fd_sc_hd__fill_2
XFILLER_13_115 VGND VGND VPWR VPWR sky130_fd_sc_hd__fill_2
XFILLER_9_108 VGND VGND VPWR VPWR sky130_fd_sc_hd__fill_2
XFILLER_8_130 VGND VGND VPWR VPWR sky130_fd_sc_hd__fill_1
XFILLER_8_152 VGND VGND VPWR VPWR sky130_fd_sc_hd__fill_2
Xmem_bottom_track_11.sky130_fd_sc_hd__dfxtp_1_2_ clkbuf_3_4_0_mem_bottom_track_1.prog_clk/X
+ mux_bottom_track_11.mux_l2_in_1_/S VGND VGND VPWR VPWR mux_bottom_track_11.mux_l3_in_0_/S
+ sky130_fd_sc_hd__dfxtp_1
XANTENNA__080__A _080_/A VGND VGND VPWR VPWR sky130_fd_sc_hd__diode_2
XFILLER_5_144 VGND VGND VPWR VPWR sky130_fd_sc_hd__decap_3
XFILLER_5_133 VGND VGND VPWR VPWR sky130_fd_sc_hd__fill_2
XANTENNA_input83_A right_bottom_grid_pin_37_ VGND VGND VPWR VPWR sky130_fd_sc_hd__diode_2
XFILLER_32_221 VGND VGND VPWR VPWR sky130_fd_sc_hd__fill_2
XFILLER_4_92 VGND VGND VPWR VPWR sky130_fd_sc_hd__fill_2
XANTENNA_mux_bottom_track_7.mux_l1_in_0__A1 _064_/A VGND VGND VPWR VPWR sky130_fd_sc_hd__diode_2
XFILLER_23_221 VGND VGND VPWR VPWR sky130_fd_sc_hd__fill_2
XANTENNA__075__A _075_/A VGND VGND VPWR VPWR sky130_fd_sc_hd__diode_2
XFILLER_23_13 VGND VGND VPWR VPWR sky130_fd_sc_hd__fill_1
XFILLER_23_46 VGND VGND VPWR VPWR sky130_fd_sc_hd__decap_8
Xmem_bottom_track_9.sky130_fd_sc_hd__dfxtp_1_1_ clkbuf_3_1_0_mem_bottom_track_1.prog_clk/X
+ mux_bottom_track_9.mux_l1_in_0_/S VGND VGND VPWR VPWR mux_bottom_track_9.mux_l2_in_1_/S
+ sky130_fd_sc_hd__dfxtp_1
XFILLER_14_221 VGND VGND VPWR VPWR sky130_fd_sc_hd__fill_2
XFILLER_18_13 VGND VGND VPWR VPWR sky130_fd_sc_hd__fill_1
X_110_ _110_/A VGND VGND VPWR VPWR _110_/X sky130_fd_sc_hd__clkbuf_1
X_041_ VGND VGND VPWR VPWR _041_/HI _041_/LO sky130_fd_sc_hd__conb_1
XANTENNA_mux_bottom_track_5.mux_l1_in_2__A1 input8/X VGND VGND VPWR VPWR sky130_fd_sc_hd__diode_2
XANTENNA_input46_A chanx_right_in[5] VGND VGND VPWR VPWR sky130_fd_sc_hd__diode_2
XANTENNA_mux_bottom_track_21.mux_l1_in_1__A1 _094_/A VGND VGND VPWR VPWR sky130_fd_sc_hd__diode_2
XFILLER_29_78 VGND VGND VPWR VPWR sky130_fd_sc_hd__fill_2
XFILLER_29_89 VGND VGND VPWR VPWR sky130_fd_sc_hd__fill_2
XFILLER_28_198 VGND VGND VPWR VPWR sky130_fd_sc_hd__fill_2
XFILLER_6_27 VGND VGND VPWR VPWR sky130_fd_sc_hd__fill_2
XFILLER_19_143 VGND VGND VPWR VPWR sky130_fd_sc_hd__decap_3
XFILLER_19_176 VGND VGND VPWR VPWR sky130_fd_sc_hd__fill_2
Xmux_bottom_track_11.sky130_fd_sc_hd__buf_4_0_ mux_bottom_track_11.mux_l3_in_0_/X
+ VGND VGND VPWR VPWR _102_/A sky130_fd_sc_hd__clkbuf_1
XFILLER_15_14 VGND VGND VPWR VPWR sky130_fd_sc_hd__fill_2
XFILLER_25_113 VGND VGND VPWR VPWR sky130_fd_sc_hd__fill_1
XFILLER_25_168 VGND VGND VPWR VPWR sky130_fd_sc_hd__decap_3
XFILLER_25_179 VGND VGND VPWR VPWR sky130_fd_sc_hd__decap_8
XANTENNA__083__A _083_/A VGND VGND VPWR VPWR sky130_fd_sc_hd__diode_2
XFILLER_0_201 VGND VGND VPWR VPWR sky130_fd_sc_hd__fill_2
XFILLER_31_127 VGND VGND VPWR VPWR sky130_fd_sc_hd__decap_4
Xmux_right_track_8.mux_l2_in_0_ input87/X mux_right_track_8.mux_l1_in_0_/X mux_right_track_8.mux_l2_in_3_/S
+ VGND VGND VPWR VPWR mux_right_track_8.mux_l2_in_0_/X sky130_fd_sc_hd__mux2_1
XFILLER_16_113 VGND VGND VPWR VPWR sky130_fd_sc_hd__fill_2
XFILLER_16_135 VGND VGND VPWR VPWR sky130_fd_sc_hd__fill_2
XPHY_130 VGND VPWR sky130_fd_sc_hd__tapvpwrvgnd_1
XPHY_141 VGND VPWR sky130_fd_sc_hd__tapvpwrvgnd_1
XPHY_152 VGND VPWR sky130_fd_sc_hd__tapvpwrvgnd_1
XPHY_185 VGND VPWR sky130_fd_sc_hd__tapvpwrvgnd_1
XPHY_174 VGND VPWR sky130_fd_sc_hd__tapvpwrvgnd_1
XPHY_163 VGND VPWR sky130_fd_sc_hd__tapvpwrvgnd_1
XFILLER_22_105 VGND VGND VPWR VPWR sky130_fd_sc_hd__decap_8
XFILLER_30_193 VGND VGND VPWR VPWR sky130_fd_sc_hd__fill_2
XFILLER_26_46 VGND VGND VPWR VPWR sky130_fd_sc_hd__fill_1
XFILLER_26_24 VGND VGND VPWR VPWR sky130_fd_sc_hd__decap_4
XFILLER_13_105 VGND VGND VPWR VPWR sky130_fd_sc_hd__fill_2
XANTENNA_mux_right_track_4.mux_l1_in_6__A0 _092_/A VGND VGND VPWR VPWR sky130_fd_sc_hd__diode_2
XFILLER_12_171 VGND VGND VPWR VPWR sky130_fd_sc_hd__fill_2
XFILLER_8_142 VGND VGND VPWR VPWR sky130_fd_sc_hd__fill_1
Xmem_bottom_track_11.sky130_fd_sc_hd__dfxtp_1_1_ clkbuf_3_5_0_mem_bottom_track_1.prog_clk/X
+ mux_bottom_track_11.mux_l1_in_0_/S VGND VGND VPWR VPWR mux_bottom_track_11.mux_l2_in_1_/S
+ sky130_fd_sc_hd__dfxtp_1
XFILLER_12_48 VGND VGND VPWR VPWR sky130_fd_sc_hd__fill_2
XFILLER_5_156 VGND VGND VPWR VPWR sky130_fd_sc_hd__decap_4
XFILLER_5_112 VGND VGND VPWR VPWR sky130_fd_sc_hd__fill_2
XFILLER_5_101 VGND VGND VPWR VPWR sky130_fd_sc_hd__fill_2
XANTENNA_input76_A left_bottom_grid_pin_39_ VGND VGND VPWR VPWR sky130_fd_sc_hd__diode_2
XFILLER_4_60 VGND VGND VPWR VPWR sky130_fd_sc_hd__fill_2
XFILLER_4_71 VGND VGND VPWR VPWR sky130_fd_sc_hd__decap_3
XANTENNA__091__A _091_/A VGND VGND VPWR VPWR sky130_fd_sc_hd__diode_2
XFILLER_23_58 VGND VGND VPWR VPWR sky130_fd_sc_hd__fill_2
Xmem_bottom_track_9.sky130_fd_sc_hd__dfxtp_1_0_ clkbuf_3_1_0_mem_bottom_track_1.prog_clk/X
+ mux_bottom_track_7.mux_l3_in_0_/S VGND VGND VPWR VPWR mux_bottom_track_9.mux_l1_in_0_/S
+ sky130_fd_sc_hd__dfxtp_1
XFILLER_18_36 VGND VGND VPWR VPWR sky130_fd_sc_hd__decap_3
XANTENNA__086__A _086_/A VGND VGND VPWR VPWR sky130_fd_sc_hd__diode_2
XFILLER_1_3 VGND VGND VPWR VPWR sky130_fd_sc_hd__fill_2
X_040_ VGND VGND VPWR VPWR _040_/HI _040_/LO sky130_fd_sc_hd__conb_1
XANTENNA_input39_A chanx_right_in[17] VGND VGND VPWR VPWR sky130_fd_sc_hd__diode_2
XFILLER_29_46 VGND VGND VPWR VPWR sky130_fd_sc_hd__decap_8
XFILLER_28_144 VGND VGND VPWR VPWR sky130_fd_sc_hd__fill_1
XFILLER_13_8 VGND VGND VPWR VPWR sky130_fd_sc_hd__fill_2
XFILLER_20_9 VGND VGND VPWR VPWR sky130_fd_sc_hd__decap_4
XFILLER_31_58 VGND VGND VPWR VPWR sky130_fd_sc_hd__decap_8
XFILLER_31_14 VGND VGND VPWR VPWR sky130_fd_sc_hd__fill_2
XFILLER_31_106 VGND VGND VPWR VPWR sky130_fd_sc_hd__decap_8
XPHY_175 VGND VPWR sky130_fd_sc_hd__tapvpwrvgnd_1
XPHY_164 VGND VPWR sky130_fd_sc_hd__tapvpwrvgnd_1
XPHY_120 VGND VPWR sky130_fd_sc_hd__tapvpwrvgnd_1
XFILLER_16_169 VGND VGND VPWR VPWR sky130_fd_sc_hd__fill_2
XPHY_131 VGND VPWR sky130_fd_sc_hd__tapvpwrvgnd_1
XPHY_142 VGND VPWR sky130_fd_sc_hd__tapvpwrvgnd_1
XPHY_153 VGND VPWR sky130_fd_sc_hd__tapvpwrvgnd_1
XPHY_186 VGND VPWR sky130_fd_sc_hd__tapvpwrvgnd_1
XPHY_0 VGND VGND VPWR VPWR sky130_fd_sc_hd__decap_3
XFILLER_15_191 VGND VGND VPWR VPWR sky130_fd_sc_hd__fill_2
XFILLER_22_139 VGND VGND VPWR VPWR sky130_fd_sc_hd__decap_4
XFILLER_26_14 VGND VGND VPWR VPWR sky130_fd_sc_hd__fill_2
XANTENNA__094__A _094_/A VGND VGND VPWR VPWR sky130_fd_sc_hd__diode_2
XFILLER_26_36 VGND VGND VPWR VPWR sky130_fd_sc_hd__fill_2
XFILLER_21_161 VGND VGND VPWR VPWR sky130_fd_sc_hd__decap_3
XANTENNA_mux_right_track_4.mux_l1_in_6__A1 _083_/A VGND VGND VPWR VPWR sky130_fd_sc_hd__diode_2
XFILLER_21_172 VGND VGND VPWR VPWR sky130_fd_sc_hd__decap_6
Xmux_bottom_track_13.mux_l2_in_0_ mux_bottom_track_13.mux_l1_in_1_/X mux_bottom_track_13.mux_l1_in_0_/X
+ mux_bottom_track_13.mux_l2_in_0_/S VGND VGND VPWR VPWR mux_bottom_track_13.mux_l2_in_0_/X
+ sky130_fd_sc_hd__mux2_1
XANTENNA_input21_A chanx_left_in[19] VGND VGND VPWR VPWR sky130_fd_sc_hd__diode_2
XFILLER_12_183 VGND VGND VPWR VPWR sky130_fd_sc_hd__fill_2
XFILLER_16_80 VGND VGND VPWR VPWR sky130_fd_sc_hd__decap_6
XFILLER_8_176 VGND VGND VPWR VPWR sky130_fd_sc_hd__decap_3
XFILLER_8_187 VGND VGND VPWR VPWR sky130_fd_sc_hd__fill_2
XFILLER_8_198 VGND VGND VPWR VPWR sky130_fd_sc_hd__fill_2
Xmem_bottom_track_11.sky130_fd_sc_hd__dfxtp_1_0_ clkbuf_3_4_0_mem_bottom_track_1.prog_clk/X
+ mux_bottom_track_9.mux_l3_in_0_/S VGND VGND VPWR VPWR mux_bottom_track_11.mux_l1_in_0_/S
+ sky130_fd_sc_hd__dfxtp_1
Xmux_bottom_track_25.mux_l3_in_0_ mux_bottom_track_25.mux_l2_in_1_/X mux_bottom_track_25.mux_l2_in_0_/X
+ mux_bottom_track_25.mux_l3_in_0_/S VGND VGND VPWR VPWR mux_bottom_track_25.mux_l3_in_0_/X
+ sky130_fd_sc_hd__mux2_1
Xmux_right_track_8.mux_l1_in_0_ input83/X input88/X mux_right_track_8.mux_l1_in_0_/S
+ VGND VGND VPWR VPWR mux_right_track_8.mux_l1_in_0_/X sky130_fd_sc_hd__mux2_1
XFILLER_12_16 VGND VGND VPWR VPWR sky130_fd_sc_hd__fill_2
XFILLER_12_27 VGND VGND VPWR VPWR sky130_fd_sc_hd__fill_2
XANTENNA_input69_A chany_bottom_in[8] VGND VGND VPWR VPWR sky130_fd_sc_hd__diode_2
XANTENNA_mux_bottom_track_17.mux_l1_in_0__A1 _071_/A VGND VGND VPWR VPWR sky130_fd_sc_hd__diode_2
XFILLER_32_201 VGND VGND VPWR VPWR sky130_fd_sc_hd__fill_1
XANTENNA_mux_bottom_track_9.mux_l2_in_0__A0 _086_/A VGND VGND VPWR VPWR sky130_fd_sc_hd__diode_2
XFILLER_17_220 VGND VGND VPWR VPWR sky130_fd_sc_hd__decap_3
XFILLER_4_83 VGND VGND VPWR VPWR sky130_fd_sc_hd__decap_3
Xmux_bottom_track_27.sky130_fd_sc_hd__buf_4_0_ mux_bottom_track_27.mux_l2_in_0_/X
+ VGND VGND VPWR VPWR _110_/A sky130_fd_sc_hd__clkbuf_1
XFILLER_23_201 VGND VGND VPWR VPWR sky130_fd_sc_hd__fill_2
XFILLER_23_212 VGND VGND VPWR VPWR sky130_fd_sc_hd__decap_4
Xmux_bottom_track_13.mux_l1_in_1_ _046_/HI _088_/A mux_bottom_track_13.mux_l1_in_1_/S
+ VGND VGND VPWR VPWR mux_bottom_track_13.mux_l1_in_1_/X sky130_fd_sc_hd__mux2_1
Xmux_right_track_8.sky130_fd_sc_hd__buf_4_0_ mux_right_track_8.mux_l4_in_0_/X VGND