* NGSPICE file created from sb_2__0_.ext - technology: sky130A

* Black-box entry subcircuit for sky130_fd_sc_hd__fill_2 abstract view
.subckt sky130_fd_sc_hd__fill_2 VGND VNB VPB VPWR
.ends

* Black-box entry subcircuit for sky130_fd_sc_hd__decap_12 abstract view
.subckt sky130_fd_sc_hd__decap_12 VGND VNB VPB VPWR
.ends

* Black-box entry subcircuit for sky130_fd_sc_hd__dfxtp_1 abstract view
.subckt sky130_fd_sc_hd__dfxtp_1 CLK D VGND VNB VPB VPWR Q
.ends

* Black-box entry subcircuit for sky130_fd_sc_hd__decap_8 abstract view
.subckt sky130_fd_sc_hd__decap_8 VGND VNB VPB VPWR
.ends

* Black-box entry subcircuit for sky130_fd_sc_hd__decap_3 abstract view
.subckt sky130_fd_sc_hd__decap_3 VGND VNB VPB VPWR
.ends

* Black-box entry subcircuit for sky130_fd_sc_hd__diode_2 abstract view
.subckt sky130_fd_sc_hd__diode_2 DIODE VGND VNB VPB VPWR
.ends

* Black-box entry subcircuit for sky130_fd_sc_hd__conb_1 abstract view
.subckt sky130_fd_sc_hd__conb_1 VGND VNB VPB VPWR HI LO
.ends

* Black-box entry subcircuit for sky130_fd_sc_hd__decap_4 abstract view
.subckt sky130_fd_sc_hd__decap_4 VGND VNB VPB VPWR
.ends

* Black-box entry subcircuit for sky130_fd_sc_hd__clkbuf_2 abstract view
.subckt sky130_fd_sc_hd__clkbuf_2 A VGND VNB VPB VPWR X
.ends

* Black-box entry subcircuit for sky130_fd_sc_hd__tapvpwrvgnd_1 abstract view
.subckt sky130_fd_sc_hd__tapvpwrvgnd_1 VGND VPWR
.ends

* Black-box entry subcircuit for sky130_fd_sc_hd__decap_6 abstract view
.subckt sky130_fd_sc_hd__decap_6 VGND VNB VPB VPWR
.ends

* Black-box entry subcircuit for sky130_fd_sc_hd__fill_1 abstract view
.subckt sky130_fd_sc_hd__fill_1 VGND VNB VPB VPWR
.ends

* Black-box entry subcircuit for sky130_fd_sc_hd__clkbuf_1 abstract view
.subckt sky130_fd_sc_hd__clkbuf_1 A VGND VNB VPB VPWR X
.ends

* Black-box entry subcircuit for sky130_fd_sc_hd__mux2_1 abstract view
.subckt sky130_fd_sc_hd__mux2_1 A0 A1 S VGND VNB VPB VPWR X
.ends

* Black-box entry subcircuit for sky130_fd_sc_hd__clkbuf_16 abstract view
.subckt sky130_fd_sc_hd__clkbuf_16 A VGND VNB VPB VPWR X
.ends

* Black-box entry subcircuit for sky130_fd_sc_hd__buf_8 abstract view
.subckt sky130_fd_sc_hd__buf_8 A VGND VNB VPB VPWR X
.ends

* Black-box entry subcircuit for sky130_fd_sc_hd__buf_1 abstract view
.subckt sky130_fd_sc_hd__buf_1 A VGND VNB VPB VPWR X
.ends

.subckt sb_2__0_ ccff_head ccff_tail chanx_left_in[0] chanx_left_in[10] chanx_left_in[11]
+ chanx_left_in[12] chanx_left_in[13] chanx_left_in[14] chanx_left_in[15] chanx_left_in[16]
+ chanx_left_in[17] chanx_left_in[18] chanx_left_in[19] chanx_left_in[1] chanx_left_in[2]
+ chanx_left_in[3] chanx_left_in[4] chanx_left_in[5] chanx_left_in[6] chanx_left_in[7]
+ chanx_left_in[8] chanx_left_in[9] chanx_left_out[0] chanx_left_out[10] chanx_left_out[11]
+ chanx_left_out[12] chanx_left_out[13] chanx_left_out[14] chanx_left_out[15] chanx_left_out[16]
+ chanx_left_out[17] chanx_left_out[18] chanx_left_out[19] chanx_left_out[1] chanx_left_out[2]
+ chanx_left_out[3] chanx_left_out[4] chanx_left_out[5] chanx_left_out[6] chanx_left_out[7]
+ chanx_left_out[8] chanx_left_out[9] chany_top_in[0] chany_top_in[10] chany_top_in[11]
+ chany_top_in[12] chany_top_in[13] chany_top_in[14] chany_top_in[15] chany_top_in[16]
+ chany_top_in[17] chany_top_in[18] chany_top_in[19] chany_top_in[1] chany_top_in[2]
+ chany_top_in[3] chany_top_in[4] chany_top_in[5] chany_top_in[6] chany_top_in[7]
+ chany_top_in[8] chany_top_in[9] chany_top_out[0] chany_top_out[10] chany_top_out[11]
+ chany_top_out[12] chany_top_out[13] chany_top_out[14] chany_top_out[15] chany_top_out[16]
+ chany_top_out[17] chany_top_out[18] chany_top_out[19] chany_top_out[1] chany_top_out[2]
+ chany_top_out[3] chany_top_out[4] chany_top_out[5] chany_top_out[6] chany_top_out[7]
+ chany_top_out[8] chany_top_out[9] left_bottom_grid_pin_11_ left_bottom_grid_pin_13_
+ left_bottom_grid_pin_15_ left_bottom_grid_pin_17_ left_bottom_grid_pin_1_ left_bottom_grid_pin_3_
+ left_bottom_grid_pin_5_ left_bottom_grid_pin_7_ left_bottom_grid_pin_9_ prog_clk_0_N_in
+ top_left_grid_pin_42_ top_left_grid_pin_43_ top_left_grid_pin_44_ top_left_grid_pin_45_
+ top_left_grid_pin_46_ top_left_grid_pin_47_ top_left_grid_pin_48_ top_left_grid_pin_49_
+ top_right_grid_pin_1_ VPWR VGND
XFILLER_22_144 VGND VGND VPWR VPWR sky130_fd_sc_hd__fill_2
XFILLER_26_30 VGND VGND VPWR VPWR sky130_fd_sc_hd__fill_2
XFILLER_9_115 VGND VGND VPWR VPWR sky130_fd_sc_hd__decap_12
Xmem_left_track_17.sky130_fd_sc_hd__dfxtp_1_0_ clkbuf_3_3_0_mem_left_track_1.prog_clk/X
+ mux_left_track_15.mux_l2_in_0_/S VGND VGND VPWR VPWR mux_left_track_17.mux_l1_in_0_/S
+ sky130_fd_sc_hd__dfxtp_1
XFILLER_8_192 VGND VGND VPWR VPWR sky130_fd_sc_hd__decap_8
XFILLER_12_10 VGND VGND VPWR VPWR sky130_fd_sc_hd__fill_2
XFILLER_12_32 VGND VGND VPWR VPWR sky130_fd_sc_hd__decap_8
XFILLER_12_87 VGND VGND VPWR VPWR sky130_fd_sc_hd__decap_3
XFILLER_5_151 VGND VGND VPWR VPWR sky130_fd_sc_hd__decap_12
XFILLER_5_184 VGND VGND VPWR VPWR sky130_fd_sc_hd__decap_12
XANTENNA_mux_top_track_0.mux_l1_in_0__A0 input53/X VGND VGND VPWR VPWR sky130_fd_sc_hd__diode_2
X_062_ VGND VGND VPWR VPWR _062_/HI _062_/LO sky130_fd_sc_hd__conb_1
XANTENNA_input55_A top_left_grid_pin_46_ VGND VGND VPWR VPWR sky130_fd_sc_hd__diode_2
XFILLER_9_11 VGND VGND VPWR VPWR sky130_fd_sc_hd__fill_2
XFILLER_21_209 VGND VGND VPWR VPWR sky130_fd_sc_hd__decap_12
XFILLER_18_20 VGND VGND VPWR VPWR sky130_fd_sc_hd__fill_2
XFILLER_7_213 VGND VGND VPWR VPWR sky130_fd_sc_hd__decap_8
XFILLER_11_220 VGND VGND VPWR VPWR sky130_fd_sc_hd__decap_3
X_045_ VGND VGND VPWR VPWR _045_/HI _045_/LO sky130_fd_sc_hd__conb_1
XFILLER_20_32 VGND VGND VPWR VPWR sky130_fd_sc_hd__decap_3
XFILLER_20_65 VGND VGND VPWR VPWR sky130_fd_sc_hd__decap_4
XFILLER_20_87 VGND VGND VPWR VPWR sky130_fd_sc_hd__fill_2
XFILLER_20_98 VGND VGND VPWR VPWR sky130_fd_sc_hd__fill_2
XANTENNA_input18_A chanx_left_in[6] VGND VGND VPWR VPWR sky130_fd_sc_hd__diode_2
XFILLER_6_78 VGND VGND VPWR VPWR sky130_fd_sc_hd__decap_8
XFILLER_19_172 VGND VGND VPWR VPWR sky130_fd_sc_hd__fill_2
XFILLER_1_208 VGND VGND VPWR VPWR sky130_fd_sc_hd__decap_12
XFILLER_17_109 VGND VGND VPWR VPWR sky130_fd_sc_hd__decap_4
XFILLER_25_131 VGND VGND VPWR VPWR sky130_fd_sc_hd__fill_2
XFILLER_15_76 VGND VGND VPWR VPWR sky130_fd_sc_hd__decap_4
Xoutput75 _072_/X VGND VGND VPWR VPWR chanx_left_out[4] sky130_fd_sc_hd__clkbuf_2
Xoutput64 _080_/X VGND VGND VPWR VPWR chanx_left_out[12] sky130_fd_sc_hd__clkbuf_2
Xoutput86 _102_/X VGND VGND VPWR VPWR chany_top_out[14] sky130_fd_sc_hd__clkbuf_2
Xoutput97 _094_/X VGND VGND VPWR VPWR chany_top_out[6] sky130_fd_sc_hd__clkbuf_2
XPHY_170 VGND VPWR sky130_fd_sc_hd__tapvpwrvgnd_1
XPHY_192 VGND VPWR sky130_fd_sc_hd__tapvpwrvgnd_1
XPHY_181 VGND VPWR sky130_fd_sc_hd__tapvpwrvgnd_1
XFILLER_22_101 VGND VGND VPWR VPWR sky130_fd_sc_hd__fill_2
XFILLER_22_189 VGND VGND VPWR VPWR sky130_fd_sc_hd__decap_8
XFILLER_9_105 VGND VGND VPWR VPWR sky130_fd_sc_hd__decap_8
XFILLER_13_101 VGND VGND VPWR VPWR sky130_fd_sc_hd__decap_6
XFILLER_26_53 VGND VGND VPWR VPWR sky130_fd_sc_hd__fill_2
XFILLER_9_127 VGND VGND VPWR VPWR sky130_fd_sc_hd__decap_12
XFILLER_3_13 VGND VGND VPWR VPWR sky130_fd_sc_hd__fill_2
XFILLER_5_196 VGND VGND VPWR VPWR sky130_fd_sc_hd__decap_12
XFILLER_5_163 VGND VGND VPWR VPWR sky130_fd_sc_hd__decap_8
XANTENNA_mux_top_track_0.mux_l1_in_0__A1 input51/X VGND VGND VPWR VPWR sky130_fd_sc_hd__diode_2
XFILLER_23_32 VGND VGND VPWR VPWR sky130_fd_sc_hd__fill_2
XFILLER_23_43 VGND VGND VPWR VPWR sky130_fd_sc_hd__decap_3
XFILLER_2_111 VGND VGND VPWR VPWR sky130_fd_sc_hd__decap_12
XFILLER_23_76 VGND VGND VPWR VPWR sky130_fd_sc_hd__fill_2
X_061_ VGND VGND VPWR VPWR _061_/HI _061_/LO sky130_fd_sc_hd__conb_1
XFILLER_2_144 VGND VGND VPWR VPWR sky130_fd_sc_hd__decap_12
XANTENNA_input48_A left_bottom_grid_pin_5_ VGND VGND VPWR VPWR sky130_fd_sc_hd__diode_2
XFILLER_0_25 VGND VGND VPWR VPWR sky130_fd_sc_hd__decap_4
XFILLER_9_89 VGND VGND VPWR VPWR sky130_fd_sc_hd__fill_2
XFILLER_9_56 VGND VGND VPWR VPWR sky130_fd_sc_hd__fill_1
XFILLER_20_221 VGND VGND VPWR VPWR sky130_fd_sc_hd__fill_2
Xmux_left_track_9.sky130_fd_sc_hd__buf_4_0_ mux_left_track_9.mux_l2_in_0_/X VGND VGND
+ VPWR VPWR _072_/A sky130_fd_sc_hd__clkbuf_1
XFILLER_18_10 VGND VGND VPWR VPWR sky130_fd_sc_hd__fill_2
X_044_ VGND VGND VPWR VPWR _044_/HI _044_/LO sky130_fd_sc_hd__conb_1
XFILLER_20_44 VGND VGND VPWR VPWR sky130_fd_sc_hd__fill_2
XFILLER_20_55 VGND VGND VPWR VPWR sky130_fd_sc_hd__fill_2
Xmux_left_track_31.sky130_fd_sc_hd__buf_4_0_ mux_left_track_31.mux_l2_in_0_/X VGND
+ VGND VPWR VPWR _083_/A sky130_fd_sc_hd__clkbuf_1
Xmux_top_track_10.mux_l2_in_0_ _043_/HI mux_top_track_10.mux_l1_in_0_/X mux_top_track_10.mux_l2_in_0_/S
+ VGND VGND VPWR VPWR mux_top_track_10.mux_l2_in_0_/X sky130_fd_sc_hd__mux2_1
Xmem_left_track_35.sky130_fd_sc_hd__dfxtp_1_1_ clkbuf_3_2_0_mem_left_track_1.prog_clk/X
+ mux_left_track_35.mux_l1_in_0_/S VGND VGND VPWR VPWR mux_left_track_35.mux_l2_in_0_/S
+ sky130_fd_sc_hd__dfxtp_1
XFILLER_25_154 VGND VGND VPWR VPWR sky130_fd_sc_hd__decap_4
Xoutput76 _073_/X VGND VGND VPWR VPWR chanx_left_out[5] sky130_fd_sc_hd__clkbuf_2
Xoutput65 _081_/X VGND VGND VPWR VPWR chanx_left_out[13] sky130_fd_sc_hd__clkbuf_2
Xoutput98 _095_/X VGND VGND VPWR VPWR chany_top_out[7] sky130_fd_sc_hd__clkbuf_2
Xoutput87 _103_/X VGND VGND VPWR VPWR chany_top_out[15] sky130_fd_sc_hd__clkbuf_2
XANTENNA_input30_A chany_top_in[17] VGND VGND VPWR VPWR sky130_fd_sc_hd__diode_2
XPHY_193 VGND VPWR sky130_fd_sc_hd__tapvpwrvgnd_1
XPHY_160 VGND VPWR sky130_fd_sc_hd__tapvpwrvgnd_1
XPHY_171 VGND VPWR sky130_fd_sc_hd__tapvpwrvgnd_1
XFILLER_31_113 VGND VGND VPWR VPWR sky130_fd_sc_hd__fill_1
XFILLER_31_146 VGND VGND VPWR VPWR sky130_fd_sc_hd__fill_2
XFILLER_31_157 VGND VGND VPWR VPWR sky130_fd_sc_hd__decap_3
XPHY_182 VGND VPWR sky130_fd_sc_hd__tapvpwrvgnd_1
XFILLER_31_168 VGND VGND VPWR VPWR sky130_fd_sc_hd__decap_3
Xmux_left_track_25.sky130_fd_sc_hd__buf_4_0_ mux_left_track_25.mux_l2_in_0_/X VGND
+ VGND VPWR VPWR _080_/A sky130_fd_sc_hd__clkbuf_1
XFILLER_22_179 VGND VGND VPWR VPWR sky130_fd_sc_hd__fill_1
XFILLER_9_139 VGND VGND VPWR VPWR sky130_fd_sc_hd__decap_12
XFILLER_13_113 VGND VGND VPWR VPWR sky130_fd_sc_hd__fill_1
XFILLER_26_87 VGND VGND VPWR VPWR sky130_fd_sc_hd__fill_2
XFILLER_26_98 VGND VGND VPWR VPWR sky130_fd_sc_hd__fill_2
XFILLER_3_58 VGND VGND VPWR VPWR sky130_fd_sc_hd__decap_12
XFILLER_5_6 VGND VGND VPWR VPWR sky130_fd_sc_hd__fill_2
Xmux_left_track_19.sky130_fd_sc_hd__buf_4_0_ mux_left_track_19.mux_l2_in_0_/X VGND
+ VGND VPWR VPWR _077_/A sky130_fd_sc_hd__clkbuf_1
Xmux_left_track_7.mux_l3_in_0_ mux_left_track_7.mux_l2_in_1_/X mux_left_track_7.mux_l2_in_0_/X
+ mux_left_track_7.mux_l3_in_0_/S VGND VGND VPWR VPWR mux_left_track_7.mux_l3_in_0_/X
+ sky130_fd_sc_hd__mux2_1
Xclkbuf_0_mem_left_track_1.prog_clk prog_clk_0_FTB00/X VGND VGND VPWR VPWR clkbuf_0_mem_left_track_1.prog_clk/X
+ sky130_fd_sc_hd__clkbuf_16
Xmem_top_track_10.sky130_fd_sc_hd__dfxtp_1_1_ clkbuf_3_4_0_mem_left_track_1.prog_clk/X
+ mux_top_track_10.mux_l1_in_0_/S VGND VGND VPWR VPWR mux_top_track_10.mux_l2_in_0_/S
+ sky130_fd_sc_hd__dfxtp_1
XFILLER_23_55 VGND VGND VPWR VPWR sky130_fd_sc_hd__fill_2
XFILLER_3_3 VGND VGND VPWR VPWR sky130_fd_sc_hd__fill_2
XFILLER_2_156 VGND VGND VPWR VPWR sky130_fd_sc_hd__decap_12
XFILLER_2_123 VGND VGND VPWR VPWR sky130_fd_sc_hd__decap_12
X_060_ VGND VGND VPWR VPWR _060_/HI _060_/LO sky130_fd_sc_hd__conb_1
XFILLER_0_15 VGND VGND VPWR VPWR sky130_fd_sc_hd__fill_2
XFILLER_0_59 VGND VGND VPWR VPWR sky130_fd_sc_hd__decap_12
Xclkbuf_2_0_0_mem_left_track_1.prog_clk clkbuf_2_1_0_mem_left_track_1.prog_clk/A VGND
+ VGND VPWR VPWR clkbuf_3_1_0_mem_left_track_1.prog_clk/A sky130_fd_sc_hd__clkbuf_1
XFILLER_7_204 VGND VGND VPWR VPWR sky130_fd_sc_hd__fill_2
Xmux_left_track_7.mux_l2_in_1_ _040_/HI input44/X mux_left_track_7.mux_l2_in_1_/S
+ VGND VGND VPWR VPWR mux_left_track_7.mux_l2_in_1_/X sky130_fd_sc_hd__mux2_1
X_043_ VGND VGND VPWR VPWR _043_/HI _043_/LO sky130_fd_sc_hd__conb_1
XFILLER_22_9 VGND VGND VPWR VPWR sky130_fd_sc_hd__fill_2
XFILLER_29_108 VGND VGND VPWR VPWR sky130_fd_sc_hd__fill_2
XFILLER_20_23 VGND VGND VPWR VPWR sky130_fd_sc_hd__fill_2
XFILLER_28_141 VGND VGND VPWR VPWR sky130_fd_sc_hd__fill_2
XFILLER_28_174 VGND VGND VPWR VPWR sky130_fd_sc_hd__decap_4
XFILLER_29_54 VGND VGND VPWR VPWR sky130_fd_sc_hd__decap_3
XFILLER_29_76 VGND VGND VPWR VPWR sky130_fd_sc_hd__fill_2
XFILLER_29_87 VGND VGND VPWR VPWR sky130_fd_sc_hd__fill_2
XFILLER_29_98 VGND VGND VPWR VPWR sky130_fd_sc_hd__fill_2
Xmem_left_track_35.sky130_fd_sc_hd__dfxtp_1_0_ clkbuf_3_2_0_mem_left_track_1.prog_clk/X
+ mux_left_track_33.mux_l2_in_0_/S VGND VGND VPWR VPWR mux_left_track_35.mux_l1_in_0_/S
+ sky130_fd_sc_hd__dfxtp_1
XFILLER_15_34 VGND VGND VPWR VPWR sky130_fd_sc_hd__fill_2
XFILLER_15_45 VGND VGND VPWR VPWR sky130_fd_sc_hd__fill_2
XFILLER_31_33 VGND VGND VPWR VPWR sky130_fd_sc_hd__fill_2
XFILLER_31_55 VGND VGND VPWR VPWR sky130_fd_sc_hd__fill_2
Xoutput77 _074_/X VGND VGND VPWR VPWR chanx_left_out[6] sky130_fd_sc_hd__clkbuf_2
Xoutput66 _082_/X VGND VGND VPWR VPWR chanx_left_out[14] sky130_fd_sc_hd__clkbuf_2
Xoutput99 _096_/X VGND VGND VPWR VPWR chany_top_out[8] sky130_fd_sc_hd__clkbuf_2
Xoutput88 _104_/X VGND VGND VPWR VPWR chany_top_out[16] sky130_fd_sc_hd__clkbuf_2
XANTENNA_input23_A chany_top_in[10] VGND VGND VPWR VPWR sky130_fd_sc_hd__diode_2
XFILLER_16_144 VGND VGND VPWR VPWR sky130_fd_sc_hd__fill_2
XPHY_150 VGND VPWR sky130_fd_sc_hd__tapvpwrvgnd_1
XPHY_161 VGND VPWR sky130_fd_sc_hd__tapvpwrvgnd_1
XPHY_172 VGND VPWR sky130_fd_sc_hd__tapvpwrvgnd_1
XFILLER_31_136 VGND VGND VPWR VPWR sky130_fd_sc_hd__fill_2
XPHY_183 VGND VPWR sky130_fd_sc_hd__tapvpwrvgnd_1
XANTENNA_output91_A _107_/X VGND VGND VPWR VPWR sky130_fd_sc_hd__diode_2
Xmux_top_track_10.mux_l1_in_0_ input8/X input52/X mux_top_track_10.mux_l1_in_0_/S
+ VGND VGND VPWR VPWR mux_top_track_10.mux_l1_in_0_/X sky130_fd_sc_hd__mux2_1
XANTENNA_mux_top_track_2.mux_l1_in_1__A0 input58/X VGND VGND VPWR VPWR sky130_fd_sc_hd__diode_2
Xmux_top_track_22.mux_l2_in_0_ _050_/HI mux_top_track_22.mux_l1_in_0_/X mux_top_track_22.mux_l2_in_0_/S
+ VGND VGND VPWR VPWR mux_top_track_22.mux_l2_in_0_/X sky130_fd_sc_hd__mux2_1
XFILLER_12_180 VGND VGND VPWR VPWR sky130_fd_sc_hd__decap_12
Xclkbuf_2_3_0_mem_left_track_1.prog_clk clkbuf_2_3_0_mem_left_track_1.prog_clk/A VGND
+ VGND VPWR VPWR clkbuf_3_7_0_mem_left_track_1.prog_clk/A sky130_fd_sc_hd__clkbuf_1
XFILLER_12_24 VGND VGND VPWR VPWR sky130_fd_sc_hd__decap_4
Xmux_left_track_15.mux_l2_in_0_ _059_/HI mux_left_track_15.mux_l1_in_0_/X mux_left_track_15.mux_l2_in_0_/S
+ VGND VGND VPWR VPWR mux_left_track_15.mux_l2_in_0_/X sky130_fd_sc_hd__mux2_1
Xmem_top_track_10.sky130_fd_sc_hd__dfxtp_1_0_ clkbuf_3_1_0_mem_left_track_1.prog_clk/X
+ mux_top_track_8.mux_l2_in_0_/S VGND VGND VPWR VPWR mux_top_track_10.mux_l1_in_0_/S
+ sky130_fd_sc_hd__dfxtp_1
XFILLER_2_168 VGND VGND VPWR VPWR sky130_fd_sc_hd__decap_12
XFILLER_2_135 VGND VGND VPWR VPWR sky130_fd_sc_hd__decap_8
Xprog_clk_0_FTB00 prog_clk_0_N_in VGND VGND VPWR VPWR prog_clk_0_FTB00/X sky130_fd_sc_hd__buf_8
XFILLER_9_58 VGND VGND VPWR VPWR sky130_fd_sc_hd__decap_3
XFILLER_9_47 VGND VGND VPWR VPWR sky130_fd_sc_hd__fill_2
XFILLER_9_36 VGND VGND VPWR VPWR sky130_fd_sc_hd__fill_2
XFILLER_9_25 VGND VGND VPWR VPWR sky130_fd_sc_hd__fill_2
XFILLER_29_3 VGND VGND VPWR VPWR sky130_fd_sc_hd__fill_2
XFILLER_20_201 VGND VGND VPWR VPWR sky130_fd_sc_hd__decap_12
XFILLER_18_89 VGND VGND VPWR VPWR sky130_fd_sc_hd__decap_4
Xmux_left_track_7.mux_l2_in_0_ mux_left_track_7.mux_l1_in_1_/X mux_left_track_7.mux_l1_in_0_/X
+ mux_left_track_7.mux_l2_in_1_/S VGND VGND VPWR VPWR mux_left_track_7.mux_l2_in_0_/X
+ sky130_fd_sc_hd__mux2_1
X_042_ VGND VGND VPWR VPWR _042_/HI _042_/LO sky130_fd_sc_hd__conb_1
XANTENNA_input53_A top_left_grid_pin_44_ VGND VGND VPWR VPWR sky130_fd_sc_hd__diode_2
XFILLER_1_70 VGND VGND VPWR VPWR sky130_fd_sc_hd__decap_12
Xmux_top_track_0.mux_l3_in_0_ mux_top_track_0.mux_l2_in_1_/X mux_top_track_0.mux_l2_in_0_/X
+ mux_top_track_0.mux_l3_in_0_/S VGND VGND VPWR VPWR mux_top_track_0.mux_l3_in_0_/X
+ sky130_fd_sc_hd__mux2_1
XFILLER_20_13 VGND VGND VPWR VPWR sky130_fd_sc_hd__fill_2
XFILLER_28_131 VGND VGND VPWR VPWR sky130_fd_sc_hd__fill_2
XFILLER_28_197 VGND VGND VPWR VPWR sky130_fd_sc_hd__decap_3
XFILLER_13_6 VGND VGND VPWR VPWR sky130_fd_sc_hd__fill_2
Xmem_top_track_16.sky130_fd_sc_hd__dfxtp_1_1_ clkbuf_3_7_0_mem_left_track_1.prog_clk/X
+ mux_top_track_16.mux_l1_in_0_/S VGND VGND VPWR VPWR mux_top_track_16.mux_l2_in_0_/S
+ sky130_fd_sc_hd__dfxtp_1
Xmux_left_track_7.mux_l1_in_1_ input42/X input49/X mux_left_track_7.mux_l1_in_1_/S
+ VGND VGND VPWR VPWR mux_left_track_7.mux_l1_in_1_/X sky130_fd_sc_hd__mux2_1
XFILLER_25_112 VGND VGND VPWR VPWR sky130_fd_sc_hd__fill_2
XFILLER_31_67 VGND VGND VPWR VPWR sky130_fd_sc_hd__fill_2
XFILLER_0_222 VGND VGND VPWR VPWR sky130_fd_sc_hd__fill_1
Xoutput78 _075_/X VGND VGND VPWR VPWR chanx_left_out[7] sky130_fd_sc_hd__clkbuf_2
Xoutput67 _083_/X VGND VGND VPWR VPWR chanx_left_out[15] sky130_fd_sc_hd__clkbuf_2
Xoutput89 _105_/X VGND VGND VPWR VPWR chany_top_out[17] sky130_fd_sc_hd__clkbuf_2
XANTENNA_input16_A chanx_left_in[4] VGND VGND VPWR VPWR sky130_fd_sc_hd__diode_2
XPHY_140 VGND VPWR sky130_fd_sc_hd__tapvpwrvgnd_1
XPHY_151 VGND VPWR sky130_fd_sc_hd__tapvpwrvgnd_1
XPHY_162 VGND VPWR sky130_fd_sc_hd__tapvpwrvgnd_1
XPHY_173 VGND VPWR sky130_fd_sc_hd__tapvpwrvgnd_1
XPHY_184 VGND VPWR sky130_fd_sc_hd__tapvpwrvgnd_1
Xmux_top_track_0.mux_l2_in_1_ _042_/HI mux_top_track_0.mux_l1_in_2_/X mux_top_track_0.mux_l2_in_1_/S
+ VGND VGND VPWR VPWR mux_top_track_0.mux_l2_in_1_/X sky130_fd_sc_hd__mux2_1
XANTENNA_mux_left_track_1.mux_l1_in_1__A0 input50/X VGND VGND VPWR VPWR sky130_fd_sc_hd__diode_2
XANTENNA_input8_A chanx_left_in[15] VGND VGND VPWR VPWR sky130_fd_sc_hd__diode_2
XANTENNA_mux_top_track_2.mux_l1_in_1__A1 input56/X VGND VGND VPWR VPWR sky130_fd_sc_hd__diode_2
XFILLER_13_115 VGND VGND VPWR VPWR sky130_fd_sc_hd__decap_12
XFILLER_26_67 VGND VGND VPWR VPWR sky130_fd_sc_hd__fill_2
XFILLER_26_78 VGND VGND VPWR VPWR sky130_fd_sc_hd__fill_2
XFILLER_21_170 VGND VGND VPWR VPWR sky130_fd_sc_hd__fill_1
Xmux_top_track_22.sky130_fd_sc_hd__buf_4_0_ mux_top_track_22.mux_l2_in_0_/X VGND VGND
+ VPWR VPWR _099_/A sky130_fd_sc_hd__clkbuf_1
XFILLER_12_192 VGND VGND VPWR VPWR sky130_fd_sc_hd__decap_8
Xmux_top_track_0.mux_l1_in_2_ input2/X input59/X mux_top_track_0.mux_l1_in_2_/S VGND
+ VGND VPWR VPWR mux_top_track_0.mux_l1_in_2_/X sky130_fd_sc_hd__mux2_1
XFILLER_32_221 VGND VGND VPWR VPWR sky130_fd_sc_hd__fill_2
Xmux_top_track_22.mux_l1_in_0_ input21/X input58/X mux_top_track_22.mux_l1_in_0_/S
+ VGND VGND VPWR VPWR mux_top_track_22.mux_l1_in_0_/X sky130_fd_sc_hd__mux2_1
Xmux_top_track_16.sky130_fd_sc_hd__buf_4_0_ mux_top_track_16.mux_l2_in_0_/X VGND VGND
+ VPWR VPWR _096_/A sky130_fd_sc_hd__clkbuf_1
XFILLER_9_15 VGND VGND VPWR VPWR sky130_fd_sc_hd__fill_2
XFILLER_14_221 VGND VGND VPWR VPWR sky130_fd_sc_hd__fill_2
XFILLER_13_90 VGND VGND VPWR VPWR sky130_fd_sc_hd__fill_2
XFILLER_20_213 VGND VGND VPWR VPWR sky130_fd_sc_hd__decap_8
Xmux_left_track_15.mux_l1_in_0_ input49/X input26/X mux_left_track_15.mux_l1_in_0_/S
+ VGND VGND VPWR VPWR mux_left_track_15.mux_l1_in_0_/X sky130_fd_sc_hd__mux2_1
XFILLER_18_68 VGND VGND VPWR VPWR sky130_fd_sc_hd__fill_2
XFILLER_18_79 VGND VGND VPWR VPWR sky130_fd_sc_hd__fill_2
X_041_ VGND VGND VPWR VPWR _041_/HI _041_/LO sky130_fd_sc_hd__conb_1
XANTENNA_input46_A left_bottom_grid_pin_1_ VGND VGND VPWR VPWR sky130_fd_sc_hd__diode_2
Xmux_left_track_27.mux_l2_in_0_ _065_/HI mux_left_track_27.mux_l1_in_0_/X mux_left_track_27.mux_l2_in_0_/S
+ VGND VGND VPWR VPWR mux_left_track_27.mux_l2_in_0_/X sky130_fd_sc_hd__mux2_1
XFILLER_1_82 VGND VGND VPWR VPWR sky130_fd_sc_hd__decap_12
XFILLER_20_69 VGND VGND VPWR VPWR sky130_fd_sc_hd__fill_1
XFILLER_3_220 VGND VGND VPWR VPWR sky130_fd_sc_hd__decap_3
Xmem_top_track_16.sky130_fd_sc_hd__dfxtp_1_0_ clkbuf_3_5_0_mem_left_track_1.prog_clk/X
+ mux_top_track_14.mux_l2_in_0_/S VGND VGND VPWR VPWR mux_top_track_16.mux_l1_in_0_/S
+ sky130_fd_sc_hd__dfxtp_1
XFILLER_20_8 VGND VGND VPWR VPWR sky130_fd_sc_hd__fill_2
Xmux_left_track_7.mux_l1_in_0_ input47/X input30/X mux_left_track_7.mux_l1_in_1_/S
+ VGND VGND VPWR VPWR mux_left_track_7.mux_l1_in_0_/X sky130_fd_sc_hd__mux2_1
XFILLER_25_102 VGND VGND VPWR VPWR sky130_fd_sc_hd__fill_1
XFILLER_25_135 VGND VGND VPWR VPWR sky130_fd_sc_hd__decap_3
XFILLER_33_190 VGND VGND VPWR VPWR sky130_fd_sc_hd__fill_2
XFILLER_15_58 VGND VGND VPWR VPWR sky130_fd_sc_hd__fill_2
XFILLER_25_168 VGND VGND VPWR VPWR sky130_fd_sc_hd__decap_3
Xmux_top_track_0.sky130_fd_sc_hd__buf_4_0_ mux_top_track_0.mux_l3_in_0_/X VGND VGND
+ VPWR VPWR _088_/A sky130_fd_sc_hd__clkbuf_1
Xoutput79 _076_/X VGND VGND VPWR VPWR chanx_left_out[8] sky130_fd_sc_hd__clkbuf_2
Xoutput68 _084_/X VGND VGND VPWR VPWR chanx_left_out[16] sky130_fd_sc_hd__clkbuf_2
XPHY_130 VGND VPWR sky130_fd_sc_hd__tapvpwrvgnd_1
XPHY_141 VGND VPWR sky130_fd_sc_hd__tapvpwrvgnd_1
XPHY_152 VGND VPWR sky130_fd_sc_hd__tapvpwrvgnd_1
XFILLER_31_127 VGND VGND VPWR VPWR sky130_fd_sc_hd__fill_2
XPHY_163 VGND VPWR sky130_fd_sc_hd__tapvpwrvgnd_1
XPHY_174 VGND VPWR sky130_fd_sc_hd__tapvpwrvgnd_1
XPHY_185 VGND VPWR sky130_fd_sc_hd__tapvpwrvgnd_1
Xmux_top_track_0.mux_l2_in_0_ mux_top_track_0.mux_l1_in_1_/X mux_top_track_0.mux_l1_in_0_/X
+ mux_top_track_0.mux_l2_in_1_/S VGND VGND VPWR VPWR mux_top_track_0.mux_l2_in_0_/X
+ sky130_fd_sc_hd__mux2_1
XFILLER_15_190 VGND VGND VPWR VPWR sky130_fd_sc_hd__decap_12
XFILLER_22_149 VGND VGND VPWR VPWR sky130_fd_sc_hd__fill_2
XFILLER_7_70 VGND VGND VPWR VPWR sky130_fd_sc_hd__decap_12
XFILLER_30_193 VGND VGND VPWR VPWR sky130_fd_sc_hd__fill_2
XANTENNA_mux_left_track_1.mux_l1_in_1__A1 input48/X VGND VGND VPWR VPWR sky130_fd_sc_hd__diode_2
XFILLER_13_127 VGND VGND VPWR VPWR sky130_fd_sc_hd__decap_12
XFILLER_26_35 VGND VGND VPWR VPWR sky130_fd_sc_hd__decap_4
XFILLER_3_17 VGND VGND VPWR VPWR sky130_fd_sc_hd__decap_12
XANTENNA_mux_top_track_22.mux_l1_in_0__A0 input21/X VGND VGND VPWR VPWR sky130_fd_sc_hd__diode_2
XFILLER_12_15 VGND VGND VPWR VPWR sky130_fd_sc_hd__fill_2
Xmux_top_track_0.mux_l1_in_1_ input57/X input55/X mux_top_track_0.mux_l1_in_2_/S VGND
+ VGND VPWR VPWR mux_top_track_0.mux_l1_in_1_/X sky130_fd_sc_hd__mux2_1
Xmem_left_track_21.sky130_fd_sc_hd__dfxtp_1_1_ clkbuf_3_3_0_mem_left_track_1.prog_clk/X
+ mux_left_track_21.mux_l1_in_0_/S VGND VGND VPWR VPWR mux_left_track_21.mux_l2_in_0_/S
+ sky130_fd_sc_hd__dfxtp_1
XANTENNA_mux_top_track_14.mux_l1_in_0__A1 input54/X VGND VGND VPWR VPWR sky130_fd_sc_hd__diode_2
XFILLER_23_14 VGND VGND VPWR VPWR sky130_fd_sc_hd__fill_2
XFILLER_23_211 VGND VGND VPWR VPWR sky130_fd_sc_hd__decap_12
XFILLER_23_58 VGND VGND VPWR VPWR sky130_fd_sc_hd__fill_2
XFILLER_23_69 VGND VGND VPWR VPWR sky130_fd_sc_hd__decap_4
XANTENNA_mux_top_track_6.mux_l1_in_0__A0 input54/X VGND VGND VPWR VPWR sky130_fd_sc_hd__diode_2
XFILLER_18_25 VGND VGND VPWR VPWR sky130_fd_sc_hd__decap_4
XFILLER_1_3 VGND VGND VPWR VPWR sky130_fd_sc_hd__fill_2
X_040_ VGND VGND VPWR VPWR _040_/HI _040_/LO sky130_fd_sc_hd__conb_1
XANTENNA_input39_A chany_top_in[7] VGND VGND VPWR VPWR sky130_fd_sc_hd__diode_2
XFILLER_1_94 VGND VGND VPWR VPWR sky130_fd_sc_hd__decap_12
XFILLER_29_35 VGND VGND VPWR VPWR sky130_fd_sc_hd__decap_4
XFILLER_28_188 VGND VGND VPWR VPWR sky130_fd_sc_hd__fill_2
XFILLER_6_28 VGND VGND VPWR VPWR sky130_fd_sc_hd__fill_1
XFILLER_19_133 VGND VGND VPWR VPWR sky130_fd_sc_hd__fill_2
XFILLER_19_144 VGND VGND VPWR VPWR sky130_fd_sc_hd__fill_2
XFILLER_19_177 VGND VGND VPWR VPWR sky130_fd_sc_hd__fill_2
XFILLER_19_188 VGND VGND VPWR VPWR sky130_fd_sc_hd__fill_2
XFILLER_19_199 VGND VGND VPWR VPWR sky130_fd_sc_hd__decap_12
XFILLER_25_158 VGND VGND VPWR VPWR sky130_fd_sc_hd__fill_1
Xmux_left_track_27.mux_l1_in_0_ input47/X input39/X mux_left_track_27.mux_l1_in_0_/S
+ VGND VGND VPWR VPWR mux_left_track_27.mux_l1_in_0_/X sky130_fd_sc_hd__mux2_1
XFILLER_31_58 VGND VGND VPWR VPWR sky130_fd_sc_hd__fill_2
Xoutput69 _085_/X VGND VGND VPWR VPWR chanx_left_out[17] sky130_fd_sc_hd__clkbuf_2
XPHY_120 VGND VPWR sky130_fd_sc_hd__tapvpwrvgnd_1
XFILLER_16_136 VGND VGND VPWR VPWR sky130_fd_sc_hd__fill_2
XPHY_131 VGND VPWR sky130_fd_sc_hd__tapvpwrvgnd_1
XPHY_142 VGND VPWR sky130_fd_sc_hd__tapvpwrvgnd_1
XPHY_153 VGND VPWR sky130_fd_sc_hd__tapvpwrvgnd_1
XPHY_164 VGND VPWR sky130_fd_sc_hd__tapvpwrvgnd_1
XPHY_175 VGND VPWR sky130_fd_sc_hd__tapvpwrvgnd_1
XFILLER_31_117 VGND VGND VPWR VPWR sky130_fd_sc_hd__fill_2
Xmux_left_track_39.mux_l2_in_0_ _038_/HI mux_left_track_39.mux_l1_in_0_/X output60/A
+ VGND VGND VPWR VPWR mux_left_track_39.mux_l2_in_0_/X sky130_fd_sc_hd__mux2_1
XPHY_186 VGND VPWR sky130_fd_sc_hd__tapvpwrvgnd_1
XPHY_0 VGND VGND VPWR VPWR sky130_fd_sc_hd__decap_3
XFILLER_11_5 VGND VGND VPWR VPWR sky130_fd_sc_hd__fill_2
XFILLER_30_161 VGND VGND VPWR VPWR sky130_fd_sc_hd__fill_1
XFILLER_30_183 VGND VGND VPWR VPWR sky130_fd_sc_hd__fill_2
XFILLER_7_82 VGND VGND VPWR VPWR sky130_fd_sc_hd__decap_12
XFILLER_26_14 VGND VGND VPWR VPWR sky130_fd_sc_hd__fill_2
XFILLER_13_139 VGND VGND VPWR VPWR sky130_fd_sc_hd__decap_12
XFILLER_26_25 VGND VGND VPWR VPWR sky130_fd_sc_hd__decap_4
XFILLER_26_58 VGND VGND VPWR VPWR sky130_fd_sc_hd__fill_2
XFILLER_21_172 VGND VGND VPWR VPWR sky130_fd_sc_hd__decap_4
XFILLER_3_29 VGND VGND VPWR VPWR sky130_fd_sc_hd__decap_12
XANTENNA_input21_A chanx_left_in[9] VGND VGND VPWR VPWR sky130_fd_sc_hd__diode_2
XANTENNA_mux_top_track_22.mux_l1_in_0__A1 input58/X VGND VGND VPWR VPWR sky130_fd_sc_hd__diode_2
XFILLER_27_209 VGND VGND VPWR VPWR sky130_fd_sc_hd__decap_12
XANTENNA_mux_left_track_15.mux_l1_in_0__A0 input49/X VGND VGND VPWR VPWR sky130_fd_sc_hd__diode_2
Xmux_top_track_0.mux_l1_in_0_ input53/X input51/X mux_top_track_0.mux_l1_in_2_/S VGND
+ VGND VPWR VPWR mux_top_track_0.mux_l1_in_0_/X sky130_fd_sc_hd__mux2_1
Xmem_left_track_21.sky130_fd_sc_hd__dfxtp_1_0_ clkbuf_3_2_0_mem_left_track_1.prog_clk/X
+ mux_left_track_19.mux_l2_in_0_/S VGND VGND VPWR VPWR mux_left_track_21.mux_l1_in_0_/S
+ sky130_fd_sc_hd__dfxtp_1
XFILLER_14_201 VGND VGND VPWR VPWR sky130_fd_sc_hd__decap_12
XANTENNA_mux_top_track_6.mux_l1_in_0__A1 input52/X VGND VGND VPWR VPWR sky130_fd_sc_hd__diode_2
XFILLER_18_15 VGND VGND VPWR VPWR sky130_fd_sc_hd__fill_2
XFILLER_18_48 VGND VGND VPWR VPWR sky130_fd_sc_hd__decap_4
XFILLER_27_3 VGND VGND VPWR VPWR sky130_fd_sc_hd__fill_2
X_099_ _099_/A VGND VGND VPWR VPWR _099_/X sky130_fd_sc_hd__clkbuf_1
Xmem_left_track_27.sky130_fd_sc_hd__dfxtp_1_1_ clkbuf_3_0_0_mem_left_track_1.prog_clk/X
+ mux_left_track_27.mux_l1_in_0_/S VGND VGND VPWR VPWR mux_left_track_27.mux_l2_in_0_/S
+ sky130_fd_sc_hd__dfxtp_1
XFILLER_20_27 VGND VGND VPWR VPWR sky130_fd_sc_hd__fill_2
XFILLER_28_178 VGND VGND VPWR VPWR sky130_fd_sc_hd__fill_1
XANTENNA_input51_A top_left_grid_pin_42_ VGND VGND VPWR VPWR sky130_fd_sc_hd__diode_2
XFILLER_19_101 VGND VGND VPWR VPWR sky130_fd_sc_hd__fill_1
XFILLER_19_112 VGND VGND VPWR VPWR sky130_fd_sc_hd__fill_2
XFILLER_19_167 VGND VGND VPWR VPWR sky130_fd_sc_hd__decap_4
XFILLER_15_16 VGND VGND VPWR VPWR sky130_fd_sc_hd__fill_2
XFILLER_15_49 VGND VGND VPWR VPWR sky130_fd_sc_hd__fill_2
XFILLER_25_115 VGND VGND VPWR VPWR sky130_fd_sc_hd__fill_2
XFILLER_25_126 VGND VGND VPWR VPWR sky130_fd_sc_hd__fill_2
XFILLER_31_15 VGND VGND VPWR VPWR sky130_fd_sc_hd__fill_2
XFILLER_31_37 VGND VGND VPWR VPWR sky130_fd_sc_hd__fill_2
XFILLER_16_115 VGND VGND VPWR VPWR sky130_fd_sc_hd__decap_4
XPHY_187 VGND VPWR sky130_fd_sc_hd__tapvpwrvgnd_1
XPHY_110 VGND VPWR sky130_fd_sc_hd__tapvpwrvgnd_1
XPHY_121 VGND VPWR sky130_fd_sc_hd__tapvpwrvgnd_1
XPHY_132 VGND VPWR sky130_fd_sc_hd__tapvpwrvgnd_1
XPHY_143 VGND VPWR sky130_fd_sc_hd__tapvpwrvgnd_1
XPHY_154 VGND VPWR sky130_fd_sc_hd__tapvpwrvgnd_1
XPHY_165 VGND VPWR sky130_fd_sc_hd__tapvpwrvgnd_1
XPHY_176 VGND VPWR sky130_fd_sc_hd__tapvpwrvgnd_1
XFILLER_21_92 VGND VGND VPWR VPWR sky130_fd_sc_hd__fill_2
XPHY_1 VGND VGND VPWR VPWR sky130_fd_sc_hd__decap_3
XFILLER_7_94 VGND VGND VPWR VPWR sky130_fd_sc_hd__decap_12
XFILLER_26_48 VGND VGND VPWR VPWR sky130_fd_sc_hd__fill_2
XANTENNA_input14_A chanx_left_in[2] VGND VGND VPWR VPWR sky130_fd_sc_hd__diode_2
XFILLER_8_144 VGND VGND VPWR VPWR sky130_fd_sc_hd__decap_12
XFILLER_8_111 VGND VGND VPWR VPWR sky130_fd_sc_hd__decap_12
XFILLER_12_140 VGND VGND VPWR VPWR sky130_fd_sc_hd__decap_3
XFILLER_16_92 VGND VGND VPWR VPWR sky130_fd_sc_hd__decap_6
Xclkbuf_1_0_0_mem_left_track_1.prog_clk clkbuf_0_mem_left_track_1.prog_clk/X VGND
+ VGND VPWR VPWR clkbuf_2_1_0_mem_left_track_1.prog_clk/A sky130_fd_sc_hd__clkbuf_1
XFILLER_12_28 VGND VGND VPWR VPWR sky130_fd_sc_hd__fill_1
XANTENNA_input6_A chanx_left_in[13] VGND VGND VPWR VPWR sky130_fd_sc_hd__diode_2
Xmux_left_track_39.mux_l1_in_0_ input44/X input33/X mux_left_track_39.mux_l1_in_0_/S
+ VGND VGND VPWR VPWR mux_left_track_39.mux_l1_in_0_/X sky130_fd_sc_hd__mux2_1
XFILLER_17_221 VGND VGND VPWR VPWR sky130_fd_sc_hd__fill_2
XFILLER_27_80 VGND VGND VPWR VPWR sky130_fd_sc_hd__decap_3
XFILLER_4_180 VGND VGND VPWR VPWR sky130_fd_sc_hd__decap_12
XFILLER_14_213 VGND VGND VPWR VPWR sky130_fd_sc_hd__decap_8
XFILLER_1_172 VGND VGND VPWR VPWR sky130_fd_sc_hd__decap_12
XFILLER_7_209 VGND VGND VPWR VPWR sky130_fd_sc_hd__fill_2
XFILLER_24_81 VGND VGND VPWR VPWR sky130_fd_sc_hd__decap_4
X_098_ _098_/A VGND VGND VPWR VPWR _098_/X sky130_fd_sc_hd__clkbuf_1
Xmem_left_track_27.sky130_fd_sc_hd__dfxtp_1_0_ clkbuf_3_0_0_mem_left_track_1.prog_clk/X
+ mux_left_track_25.mux_l2_in_0_/S VGND VGND VPWR VPWR mux_left_track_27.mux_l1_in_0_/S
+ sky130_fd_sc_hd__dfxtp_1
XFILLER_29_15 VGND VGND VPWR VPWR sky130_fd_sc_hd__decap_4
XFILLER_28_113 VGND VGND VPWR VPWR sky130_fd_sc_hd__fill_2
XFILLER_28_146 VGND VGND VPWR VPWR sky130_fd_sc_hd__decap_3
XANTENNA_input44_A left_bottom_grid_pin_15_ VGND VGND VPWR VPWR sky130_fd_sc_hd__diode_2
XANTENNA_mux_left_track_31.mux_l1_in_0__A0 input49/X VGND VGND VPWR VPWR sky130_fd_sc_hd__diode_2
XFILLER_19_70 VGND VGND VPWR VPWR sky130_fd_sc_hd__fill_2
XFILLER_33_160 VGND VGND VPWR VPWR sky130_fd_sc_hd__fill_2