* NGSPICE file created from sb_2__2_.ext - technology: sky130A

* Black-box entry subcircuit for sky130_fd_sc_hd__tapvpwrvgnd_1 abstract view
.subckt sky130_fd_sc_hd__tapvpwrvgnd_1 VGND VPWR
.ends

* Black-box entry subcircuit for sky130_ef_sc_hd__decap_12 abstract view
.subckt sky130_ef_sc_hd__decap_12 VGND VPWR VPB VNB
.ends

* Black-box entry subcircuit for sky130_fd_sc_hd__fill_1 abstract view
.subckt sky130_fd_sc_hd__fill_1 VGND VNB VPB VPWR
.ends

* Black-box entry subcircuit for sky130_fd_sc_hd__mux2_1 abstract view
.subckt sky130_fd_sc_hd__mux2_1 A0 A1 S VGND VNB VPB VPWR X
.ends

* Black-box entry subcircuit for sky130_fd_sc_hd__fill_2 abstract view
.subckt sky130_fd_sc_hd__fill_2 VGND VNB VPB VPWR
.ends

* Black-box entry subcircuit for sky130_fd_sc_hd__decap_4 abstract view
.subckt sky130_fd_sc_hd__decap_4 VGND VNB VPB VPWR
.ends

* Black-box entry subcircuit for sky130_fd_sc_hd__dfxtp_1 abstract view
.subckt sky130_fd_sc_hd__dfxtp_1 CLK D VGND VNB VPB VPWR Q
.ends

* Black-box entry subcircuit for sky130_fd_sc_hd__diode_2 abstract view
.subckt sky130_fd_sc_hd__diode_2 DIODE VGND VNB VPB VPWR
.ends

* Black-box entry subcircuit for sky130_fd_sc_hd__decap_3 abstract view
.subckt sky130_fd_sc_hd__decap_3 VGND VNB VPB VPWR
.ends

* Black-box entry subcircuit for sky130_fd_sc_hd__conb_1 abstract view
.subckt sky130_fd_sc_hd__conb_1 VGND VNB VPB VPWR HI LO
.ends

* Black-box entry subcircuit for sky130_fd_sc_hd__buf_4 abstract view
.subckt sky130_fd_sc_hd__buf_4 A VGND VNB VPB VPWR X
.ends

* Black-box entry subcircuit for sky130_fd_sc_hd__decap_6 abstract view
.subckt sky130_fd_sc_hd__decap_6 VGND VNB VPB VPWR
.ends

* Black-box entry subcircuit for sky130_fd_sc_hd__decap_8 abstract view
.subckt sky130_fd_sc_hd__decap_8 VGND VNB VPB VPWR
.ends

* Black-box entry subcircuit for sky130_fd_sc_hd__buf_8 abstract view
.subckt sky130_fd_sc_hd__buf_8 A VGND VNB VPB VPWR X
.ends

* Black-box entry subcircuit for sky130_fd_sc_hd__buf_2 abstract view
.subckt sky130_fd_sc_hd__buf_2 A VGND VNB VPB VPWR X
.ends

.subckt sb_2__2_ SC_IN_BOT SC_OUT_BOT VGND VPWR bottom_left_grid_pin_42_ bottom_left_grid_pin_43_
+ bottom_left_grid_pin_44_ bottom_left_grid_pin_45_ bottom_left_grid_pin_46_ bottom_left_grid_pin_47_
+ bottom_left_grid_pin_48_ bottom_left_grid_pin_49_ bottom_right_grid_pin_1_ ccff_head
+ ccff_tail chanx_left_in[0] chanx_left_in[10] chanx_left_in[11] chanx_left_in[12]
+ chanx_left_in[13] chanx_left_in[14] chanx_left_in[15] chanx_left_in[16] chanx_left_in[17]
+ chanx_left_in[18] chanx_left_in[19] chanx_left_in[1] chanx_left_in[2] chanx_left_in[3]
+ chanx_left_in[4] chanx_left_in[5] chanx_left_in[6] chanx_left_in[7] chanx_left_in[8]
+ chanx_left_in[9] chanx_left_out[0] chanx_left_out[10] chanx_left_out[11] chanx_left_out[12]
+ chanx_left_out[13] chanx_left_out[14] chanx_left_out[15] chanx_left_out[16] chanx_left_out[17]
+ chanx_left_out[18] chanx_left_out[19] chanx_left_out[1] chanx_left_out[2] chanx_left_out[3]
+ chanx_left_out[4] chanx_left_out[5] chanx_left_out[6] chanx_left_out[7] chanx_left_out[8]
+ chanx_left_out[9] chany_bottom_in[0] chany_bottom_in[10] chany_bottom_in[11] chany_bottom_in[12]
+ chany_bottom_in[13] chany_bottom_in[14] chany_bottom_in[15] chany_bottom_in[16]
+ chany_bottom_in[17] chany_bottom_in[18] chany_bottom_in[19] chany_bottom_in[1] chany_bottom_in[2]
+ chany_bottom_in[3] chany_bottom_in[4] chany_bottom_in[5] chany_bottom_in[6] chany_bottom_in[7]
+ chany_bottom_in[8] chany_bottom_in[9] chany_bottom_out[0] chany_bottom_out[10] chany_bottom_out[11]
+ chany_bottom_out[12] chany_bottom_out[13] chany_bottom_out[14] chany_bottom_out[15]
+ chany_bottom_out[16] chany_bottom_out[17] chany_bottom_out[18] chany_bottom_out[19]
+ chany_bottom_out[1] chany_bottom_out[2] chany_bottom_out[3] chany_bottom_out[4]
+ chany_bottom_out[5] chany_bottom_out[6] chany_bottom_out[7] chany_bottom_out[8]
+ chany_bottom_out[9] left_bottom_grid_pin_34_ left_bottom_grid_pin_35_ left_bottom_grid_pin_36_
+ left_bottom_grid_pin_37_ left_bottom_grid_pin_38_ left_bottom_grid_pin_39_ left_bottom_grid_pin_40_
+ left_bottom_grid_pin_41_ left_top_grid_pin_1_ prog_clk_0_S_in
XTAP_188 VGND VPWR sky130_fd_sc_hd__tapvpwrvgnd_1
XTAP_177 VGND VPWR sky130_fd_sc_hd__tapvpwrvgnd_1
XFILLER_22_177 VGND VPWR VPWR VGND sky130_ef_sc_hd__decap_12
XFILLER_13_133 VGND VPWR VPWR VGND sky130_ef_sc_hd__decap_12
XFILLER_26_52 VGND VGND VPWR VPWR sky130_fd_sc_hd__fill_1
Xmux_bottom_track_3.mux_l1_in_1_ bottom_left_grid_pin_48_ bottom_left_grid_pin_46_
+ mux_bottom_track_3.mux_l1_in_1_/S VGND VGND VPWR VPWR mux_bottom_track_3.mux_l1_in_1_/X
+ sky130_fd_sc_hd__mux2_1
XFILLER_3_34 VGND VGND VPWR VPWR sky130_fd_sc_hd__fill_2
XFILLER_3_23 VGND VGND VPWR VPWR sky130_fd_sc_hd__decap_4
XFILLER_3_67 VGND VGND VPWR VPWR sky130_fd_sc_hd__fill_1
Xmem_left_track_17.sky130_fd_sc_hd__dfxtp_1_0_ prog_clk_0_FTB00/X mux_left_track_15.mux_l2_in_0_/S
+ VGND VGND VPWR VPWR mux_left_track_17.mux_l1_in_0_/S sky130_fd_sc_hd__dfxtp_1
XANTENNA_mux_bottom_track_11.mux_l1_in_0__A0 chanx_left_in[6] VGND VGND VPWR VPWR
+ sky130_fd_sc_hd__diode_2
XFILLER_6_107 VGND VGND VPWR VPWR sky130_fd_sc_hd__fill_1
XFILLER_12_32 VGND VGND VPWR VPWR sky130_fd_sc_hd__fill_2
XFILLER_12_43 VGND VGND VPWR VPWR sky130_fd_sc_hd__decap_3
XANTENNA_mux_left_track_35.mux_l1_in_0__A1 chany_bottom_in[16] VGND VGND VPWR VPWR
+ sky130_fd_sc_hd__diode_2
XFILLER_12_87 VGND VGND VPWR VPWR sky130_fd_sc_hd__fill_2
XFILLER_5_162 VGND VGND VPWR VPWR sky130_fd_sc_hd__fill_2
XANTENNA_mem_left_track_9.sky130_fd_sc_hd__dfxtp_1_0__CLK prog_clk_0_FTB00/X VGND
+ VGND VPWR VPWR sky130_fd_sc_hd__diode_2
XFILLER_30_209 VGND VPWR VPWR VGND sky130_ef_sc_hd__decap_12
X_062_ VGND VGND VPWR VPWR _062_/HI _062_/LO sky130_fd_sc_hd__conb_1
XANTENNA_mux_bottom_track_1.mux_l3_in_0__S mux_bottom_track_1.mux_l3_in_0_/S VGND
+ VGND VPWR VPWR sky130_fd_sc_hd__diode_2
XFILLER_0_13 VGND VGND VPWR VPWR sky130_fd_sc_hd__fill_2
XFILLER_0_57 VGND VGND VPWR VPWR sky130_fd_sc_hd__decap_3
XFILLER_17_9 VGND VGND VPWR VPWR sky130_fd_sc_hd__fill_2
XFILLER_9_22 VGND VGND VPWR VPWR sky130_fd_sc_hd__fill_2
XANTENNA_mem_left_track_21.sky130_fd_sc_hd__dfxtp_1_0__CLK prog_clk_0_FTB00/X VGND
+ VGND VPWR VPWR sky130_fd_sc_hd__diode_2
XANTENNA_mem_bottom_track_27.sky130_fd_sc_hd__dfxtp_1_0__CLK prog_clk_0_FTB00/X VGND
+ VGND VPWR VPWR sky130_fd_sc_hd__diode_2
XFILLER_18_20 VGND VGND VPWR VPWR sky130_fd_sc_hd__fill_2
X_045_ VGND VGND VPWR VPWR _045_/HI _045_/LO sky130_fd_sc_hd__conb_1
XFILLER_22_7 VGND VGND VPWR VPWR sky130_fd_sc_hd__fill_2
Xmux_bottom_track_17.mux_l1_in_0_ chanx_left_in[9] bottom_left_grid_pin_45_ mux_bottom_track_17.mux_l1_in_0_/S
+ VGND VGND VPWR VPWR mux_bottom_track_17.mux_l1_in_0_/X sky130_fd_sc_hd__mux2_1
XANTENNA_mem_left_track_35.sky130_fd_sc_hd__dfxtp_1_1__CLK prog_clk_0_FTB00/X VGND
+ VGND VPWR VPWR sky130_fd_sc_hd__diode_2
Xmux_bottom_track_29.mux_l2_in_0_ _069_/HI mux_bottom_track_29.mux_l1_in_0_/X mux_bottom_track_29.mux_l2_in_0_/S
+ VGND VGND VPWR VPWR mux_bottom_track_29.mux_l2_in_0_/X sky130_fd_sc_hd__mux2_1
XFILLER_6_23 VGND VGND VPWR VPWR sky130_fd_sc_hd__decap_4
XFILLER_6_12 VGND VGND VPWR VPWR sky130_fd_sc_hd__fill_2
XFILLER_13_3 VGND VPWR VPWR VGND sky130_ef_sc_hd__decap_12
XANTENNA_mem_left_track_13.sky130_fd_sc_hd__dfxtp_1_1__CLK prog_clk_0_FTB00/X VGND
+ VGND VPWR VPWR sky130_fd_sc_hd__diode_2
XFILLER_1_219 VGND VGND VPWR VPWR sky130_fd_sc_hd__decap_4
XANTENNA_mem_bottom_track_19.sky130_fd_sc_hd__dfxtp_1_1__CLK prog_clk_0_FTB00/X VGND
+ VGND VPWR VPWR sky130_fd_sc_hd__diode_2
XFILLER_31_97 VGND VPWR VPWR VGND sky130_ef_sc_hd__decap_12
XANTENNA_mux_bottom_track_3.mux_l1_in_1__A0 bottom_left_grid_pin_48_ VGND VGND VPWR
+ VPWR sky130_fd_sc_hd__diode_2
Xmux_bottom_track_3.sky130_fd_sc_hd__buf_4_0_ mux_bottom_track_3.mux_l3_in_0_/X VGND
+ VGND VPWR VPWR _092_/A sky130_fd_sc_hd__buf_4
XFILLER_16_120 VGND VGND VPWR VPWR sky130_fd_sc_hd__fill_2
XFILLER_16_197 VGND VGND VPWR VPWR sky130_fd_sc_hd__fill_1
XFILLER_31_167 VGND VGND VPWR VPWR sky130_fd_sc_hd__fill_1
XTAP_189 VGND VPWR sky130_fd_sc_hd__tapvpwrvgnd_1
XTAP_101 VGND VPWR sky130_fd_sc_hd__tapvpwrvgnd_1
XTAP_112 VGND VPWR sky130_fd_sc_hd__tapvpwrvgnd_1
XTAP_123 VGND VPWR sky130_fd_sc_hd__tapvpwrvgnd_1
XTAP_134 VGND VPWR sky130_fd_sc_hd__tapvpwrvgnd_1
XTAP_145 VGND VPWR sky130_fd_sc_hd__tapvpwrvgnd_1
XTAP_156 VGND VPWR sky130_fd_sc_hd__tapvpwrvgnd_1
XTAP_167 VGND VPWR sky130_fd_sc_hd__tapvpwrvgnd_1
XTAP_178 VGND VPWR sky130_fd_sc_hd__tapvpwrvgnd_1
XFILLER_22_112 VGND VGND VPWR VPWR sky130_fd_sc_hd__fill_2
XFILLER_22_189 VGND VGND VPWR VPWR sky130_fd_sc_hd__decap_6
XFILLER_13_145 VGND VPWR VPWR VGND sky130_ef_sc_hd__decap_12
XFILLER_26_75 VGND VGND VPWR VPWR sky130_fd_sc_hd__decap_8
XFILLER_13_189 VGND VGND VPWR VPWR sky130_fd_sc_hd__decap_3
Xmux_bottom_track_3.mux_l1_in_0_ bottom_left_grid_pin_44_ bottom_left_grid_pin_42_
+ mux_bottom_track_3.mux_l1_in_1_/S VGND VGND VPWR VPWR mux_bottom_track_3.mux_l1_in_0_/X
+ sky130_fd_sc_hd__mux2_1
XANTENNA_mux_bottom_track_11.mux_l1_in_0__A1 bottom_left_grid_pin_42_ VGND VGND VPWR
+ VPWR sky130_fd_sc_hd__diode_2
XANTENNA_mem_left_track_27.sky130_fd_sc_hd__dfxtp_1_0__D mux_left_track_25.mux_l2_in_0_/S
+ VGND VGND VPWR VPWR sky130_fd_sc_hd__diode_2
XFILLER_10_137 VGND VGND VPWR VPWR sky130_fd_sc_hd__decap_3
XFILLER_10_159 VGND VGND VPWR VPWR sky130_fd_sc_hd__fill_2
XFILLER_12_66 VGND VGND VPWR VPWR sky130_fd_sc_hd__fill_2
XFILLER_12_77 VGND VGND VPWR VPWR sky130_fd_sc_hd__fill_2
XFILLER_5_5 VGND VGND VPWR VPWR sky130_fd_sc_hd__decap_3
XFILLER_5_196 VGND VGND VPWR VPWR sky130_fd_sc_hd__fill_2
XFILLER_5_185 VGND VGND VPWR VPWR sky130_fd_sc_hd__fill_2
XANTENNA_mem_bottom_track_3.sky130_fd_sc_hd__dfxtp_1_1__CLK prog_clk_0_FTB00/X VGND
+ VGND VPWR VPWR sky130_fd_sc_hd__diode_2
XFILLER_23_32 VGND VGND VPWR VPWR sky130_fd_sc_hd__fill_2
XFILLER_23_43 VGND VGND VPWR VPWR sky130_fd_sc_hd__fill_2
XFILLER_23_54 VGND VGND VPWR VPWR sky130_fd_sc_hd__fill_2
X_061_ VGND VGND VPWR VPWR _061_/HI _061_/LO sky130_fd_sc_hd__conb_1
XFILLER_2_188 VGND VGND VPWR VPWR sky130_fd_sc_hd__fill_2
XFILLER_0_25 VGND VGND VPWR VPWR sky130_fd_sc_hd__decap_3
XFILLER_9_12 VGND VGND VPWR VPWR sky130_fd_sc_hd__fill_2
XFILLER_20_221 VGND VGND VPWR VPWR sky130_fd_sc_hd__fill_2
Xmux_left_track_9.sky130_fd_sc_hd__buf_4_0_ mux_left_track_9.mux_l2_in_0_/X VGND VGND
+ VPWR VPWR _075_/A sky130_fd_sc_hd__buf_4
XFILLER_18_87 VGND VGND VPWR VPWR sky130_fd_sc_hd__fill_2
XFILLER_18_98 VGND VGND VPWR VPWR sky130_fd_sc_hd__fill_2
XFILLER_11_221 VGND VGND VPWR VPWR sky130_fd_sc_hd__fill_2
X_044_ VGND VGND VPWR VPWR _044_/HI _044_/LO sky130_fd_sc_hd__conb_1
Xmem_bottom_track_25.sky130_fd_sc_hd__dfxtp_1_1_ prog_clk_0_FTB00/X mux_bottom_track_25.mux_l1_in_1_/S
+ VGND VGND VPWR VPWR mux_bottom_track_25.mux_l2_in_0_/S sky130_fd_sc_hd__dfxtp_1
XFILLER_4_217 VGND VGND VPWR VPWR sky130_fd_sc_hd__fill_2
XFILLER_20_88 VGND VGND VPWR VPWR sky130_fd_sc_hd__fill_2
Xmux_left_track_31.sky130_fd_sc_hd__buf_4_0_ mux_left_track_31.mux_l2_in_0_/X VGND
+ VGND VPWR VPWR _086_/A sky130_fd_sc_hd__buf_4
XFILLER_28_195 VGND VGND VPWR VPWR sky130_fd_sc_hd__fill_1
XFILLER_6_46 VGND VGND VPWR VPWR sky130_fd_sc_hd__fill_2
XFILLER_6_35 VGND VGND VPWR VPWR sky130_fd_sc_hd__fill_2
XFILLER_20_5 VGND VGND VPWR VPWR sky130_fd_sc_hd__fill_2
Xmem_left_track_35.sky130_fd_sc_hd__dfxtp_1_1_ prog_clk_0_FTB00/X mux_left_track_35.mux_l1_in_0_/S
+ VGND VGND VPWR VPWR mux_left_track_35.mux_l2_in_0_/S sky130_fd_sc_hd__dfxtp_1
XFILLER_15_77 VGND VGND VPWR VPWR sky130_fd_sc_hd__decap_4
XFILLER_15_99 VGND VPWR VPWR VGND sky130_ef_sc_hd__decap_12
XANTENNA_mux_bottom_track_3.mux_l1_in_1__A1 bottom_left_grid_pin_46_ VGND VGND VPWR
+ VPWR sky130_fd_sc_hd__diode_2
XFILLER_16_143 VGND VGND VPWR VPWR sky130_fd_sc_hd__fill_2
XFILLER_16_187 VGND VGND VPWR VPWR sky130_fd_sc_hd__fill_2
XFILLER_31_113 VGND VPWR VPWR VGND sky130_ef_sc_hd__decap_12
XTAP_102 VGND VPWR sky130_fd_sc_hd__tapvpwrvgnd_1
XTAP_113 VGND VPWR sky130_fd_sc_hd__tapvpwrvgnd_1
XTAP_124 VGND VPWR sky130_fd_sc_hd__tapvpwrvgnd_1
XTAP_135 VGND VPWR sky130_fd_sc_hd__tapvpwrvgnd_1
XTAP_146 VGND VPWR sky130_fd_sc_hd__tapvpwrvgnd_1
XTAP_157 VGND VPWR sky130_fd_sc_hd__tapvpwrvgnd_1
Xmux_left_track_25.sky130_fd_sc_hd__buf_4_0_ mux_left_track_25.mux_l2_in_0_/X VGND
+ VGND VPWR VPWR _083_/A sky130_fd_sc_hd__buf_4
XTAP_168 VGND VPWR sky130_fd_sc_hd__tapvpwrvgnd_1
XTAP_179 VGND VPWR sky130_fd_sc_hd__tapvpwrvgnd_1
XFILLER_22_124 VGND VGND VPWR VPWR sky130_fd_sc_hd__fill_2
Xmem_bottom_track_3.sky130_fd_sc_hd__dfxtp_1_2_ prog_clk_0_FTB00/X mux_bottom_track_3.mux_l2_in_1_/S
+ VGND VGND VPWR VPWR mux_bottom_track_3.mux_l3_in_0_/S sky130_fd_sc_hd__dfxtp_1
Xmux_bottom_track_29.mux_l1_in_0_ chanx_left_in[15] bottom_left_grid_pin_43_ mux_bottom_track_29.mux_l1_in_0_/S
+ VGND VGND VPWR VPWR mux_bottom_track_29.mux_l1_in_0_/X sky130_fd_sc_hd__mux2_1
XFILLER_9_106 VGND VGND VPWR VPWR sky130_fd_sc_hd__decap_6
XFILLER_13_157 VGND VGND VPWR VPWR sky130_fd_sc_hd__decap_8
XANTENNA_mem_bottom_track_1.sky130_fd_sc_hd__dfxtp_1_0__D ccff_head VGND VGND VPWR
+ VPWR sky130_fd_sc_hd__diode_2
XFILLER_27_205 VGND VPWR VPWR VGND sky130_ef_sc_hd__decap_12
XFILLER_10_127 VGND VGND VPWR VPWR sky130_fd_sc_hd__decap_4
XFILLER_12_56 VGND VGND VPWR VPWR sky130_fd_sc_hd__fill_2
XFILLER_18_205 VGND VPWR VPWR VGND sky130_ef_sc_hd__decap_12
Xmux_left_track_19.sky130_fd_sc_hd__buf_4_0_ mux_left_track_19.mux_l2_in_0_/X VGND
+ VGND VPWR VPWR _080_/A sky130_fd_sc_hd__buf_4
Xmux_left_track_7.mux_l3_in_0_ mux_left_track_7.mux_l2_in_1_/X mux_left_track_7.mux_l2_in_0_/X
+ mux_left_track_7.mux_l3_in_0_/S VGND VGND VPWR VPWR mux_left_track_7.mux_l3_in_0_/X
+ sky130_fd_sc_hd__mux2_1
XFILLER_23_77 VGND VPWR VPWR VGND sky130_ef_sc_hd__decap_12
XFILLER_3_3 VGND VPWR VPWR VGND sky130_ef_sc_hd__decap_12
X_060_ VGND VGND VPWR VPWR _060_/HI _060_/LO sky130_fd_sc_hd__conb_1
XFILLER_0_37 VGND VGND VPWR VPWR sky130_fd_sc_hd__decap_3
XFILLER_0_48 VGND VGND VPWR VPWR sky130_fd_sc_hd__fill_2
XANTENNA_mem_left_track_3.sky130_fd_sc_hd__dfxtp_1_1__CLK prog_clk_0_FTB00/X VGND
+ VGND VPWR VPWR sky130_fd_sc_hd__diode_2
XFILLER_9_57 VGND VGND VPWR VPWR sky130_fd_sc_hd__decap_3
XFILLER_18_33 VGND VGND VPWR VPWR sky130_fd_sc_hd__fill_2
XFILLER_18_44 VGND VGND VPWR VPWR sky130_fd_sc_hd__fill_2
XFILLER_7_215 VGND VGND VPWR VPWR sky130_fd_sc_hd__fill_2
Xmux_left_track_7.mux_l2_in_1_ _057_/HI left_bottom_grid_pin_40_ mux_left_track_7.mux_l2_in_1_/S
+ VGND VGND VPWR VPWR mux_left_track_7.mux_l2_in_1_/X sky130_fd_sc_hd__mux2_1
X_043_ VGND VGND VPWR VPWR _043_/HI _043_/LO sky130_fd_sc_hd__conb_1
Xmem_bottom_track_25.sky130_fd_sc_hd__dfxtp_1_0_ prog_clk_0_FTB00/X mux_bottom_track_23.mux_l2_in_0_/S
+ VGND VGND VPWR VPWR mux_bottom_track_25.mux_l1_in_1_/S sky130_fd_sc_hd__dfxtp_1
XANTENNA_mem_bottom_track_21.sky130_fd_sc_hd__dfxtp_1_1__CLK prog_clk_0_FTB00/X VGND
+ VGND VPWR VPWR sky130_fd_sc_hd__diode_2
XFILLER_28_141 VGND VPWR VPWR VGND sky130_ef_sc_hd__decap_12
XFILLER_29_43 VGND VPWR VPWR VGND sky130_ef_sc_hd__decap_12
Xmem_left_track_35.sky130_fd_sc_hd__dfxtp_1_0_ prog_clk_0_FTB00/X mux_left_track_33.mux_l2_in_0_/S
+ VGND VGND VPWR VPWR mux_left_track_35.mux_l1_in_0_/S sky130_fd_sc_hd__dfxtp_1
XFILLER_25_111 VGND VGND VPWR VPWR sky130_fd_sc_hd__fill_1
XFILLER_31_77 VGND VGND VPWR VPWR sky130_fd_sc_hd__fill_2
XFILLER_16_100 VGND VGND VPWR VPWR sky130_fd_sc_hd__decap_4
XFILLER_31_125 VGND VPWR VPWR VGND sky130_ef_sc_hd__decap_12
XFILLER_31_169 VGND VPWR VPWR VGND sky130_ef_sc_hd__decap_12
XTAP_103 VGND VPWR sky130_fd_sc_hd__tapvpwrvgnd_1
XTAP_114 VGND VPWR sky130_fd_sc_hd__tapvpwrvgnd_1
XTAP_125 VGND VPWR sky130_fd_sc_hd__tapvpwrvgnd_1
XTAP_136 VGND VPWR sky130_fd_sc_hd__tapvpwrvgnd_1
XTAP_147 VGND VPWR sky130_fd_sc_hd__tapvpwrvgnd_1
XTAP_158 VGND VPWR sky130_fd_sc_hd__tapvpwrvgnd_1
XTAP_169 VGND VPWR sky130_fd_sc_hd__tapvpwrvgnd_1
Xmem_bottom_track_3.sky130_fd_sc_hd__dfxtp_1_1_ prog_clk_0_FTB00/X mux_bottom_track_3.mux_l1_in_1_/S
+ VGND VGND VPWR VPWR mux_bottom_track_3.mux_l2_in_1_/S sky130_fd_sc_hd__dfxtp_1
XFILLER_26_33 VGND VGND VPWR VPWR sky130_fd_sc_hd__fill_1
XFILLER_9_129 VGND VGND VPWR VPWR sky130_fd_sc_hd__fill_2
XFILLER_13_169 VGND VGND VPWR VPWR sky130_fd_sc_hd__decap_4
XFILLER_26_99 VGND VGND VPWR VPWR sky130_fd_sc_hd__fill_2
XFILLER_3_15 VGND VGND VPWR VPWR sky130_fd_sc_hd__fill_2
XFILLER_12_191 VGND VGND VPWR VPWR sky130_fd_sc_hd__decap_4
XFILLER_27_217 VGND VGND VPWR VPWR sky130_fd_sc_hd__decap_6
XFILLER_12_13 VGND VGND VPWR VPWR sky130_fd_sc_hd__fill_2
XFILLER_12_24 VGND VGND VPWR VPWR sky130_fd_sc_hd__decap_4
XFILLER_33_209 VGND VPWR VPWR VGND sky130_ef_sc_hd__decap_12
Xmux_left_track_15.mux_l2_in_0_ _042_/HI mux_left_track_15.mux_l1_in_0_/X mux_left_track_15.mux_l2_in_0_/S
+ VGND VGND VPWR VPWR mux_left_track_15.mux_l2_in_0_/X sky130_fd_sc_hd__mux2_1
XFILLER_18_217 VGND VGND VPWR VPWR sky130_fd_sc_hd__fill_2
XFILLER_5_110 VGND VGND VPWR VPWR sky130_fd_sc_hd__fill_2
XFILLER_24_209 VGND VPWR VPWR VGND sky130_ef_sc_hd__decap_12
XANTENNA_mux_bottom_track_7.mux_l1_in_0__A0 bottom_left_grid_pin_44_ VGND VGND VPWR
+ VPWR sky130_fd_sc_hd__diode_2
XFILLER_23_12 VGND VGND VPWR VPWR sky130_fd_sc_hd__decap_6
XFILLER_23_89 VGND VPWR VPWR VGND sky130_ef_sc_hd__decap_12
XFILLER_2_157 VGND VGND VPWR VPWR sky130_fd_sc_hd__fill_2
Xprog_clk_0_FTB00 prog_clk_0_S_in VGND VGND VPWR VPWR prog_clk_0_FTB00/X sky130_fd_sc_hd__buf_8
XFILLER_29_3 VGND VPWR VPWR VGND sky130_ef_sc_hd__decap_12
XANTENNA_mux_bottom_track_5.mux_l1_in_2__A0 chanx_left_in[3] VGND VGND VPWR VPWR sky130_fd_sc_hd__diode_2
X_042_ VGND VGND VPWR VPWR _042_/HI _042_/LO sky130_fd_sc_hd__conb_1
Xmux_left_track_7.mux_l2_in_0_ mux_left_track_7.mux_l1_in_1_/X mux_left_track_7.mux_l1_in_0_/X
+ mux_left_track_7.mux_l2_in_1_/S VGND VGND VPWR VPWR mux_left_track_7.mux_l2_in_0_/X
+ sky130_fd_sc_hd__mux2_1
XFILLER_1_92 VGND VGND VPWR VPWR sky130_fd_sc_hd__fill_2
XANTENNA_mem_left_track_25.sky130_fd_sc_hd__dfxtp_1_0__CLK prog_clk_0_FTB00/X VGND
+ VGND VPWR VPWR sky130_fd_sc_hd__diode_2
XFILLER_20_68 VGND VGND VPWR VPWR sky130_fd_sc_hd__decap_4
XFILLER_28_153 VGND VPWR VPWR VGND sky130_ef_sc_hd__decap_12
XFILLER_28_197 VGND VPWR VPWR VGND sky130_ef_sc_hd__decap_12
XFILLER_29_55 VGND VGND VPWR VPWR sky130_fd_sc_hd__fill_1
Xmux_left_track_7.mux_l1_in_1_ left_bottom_grid_pin_38_ left_bottom_grid_pin_36_ mux_left_track_7.mux_l1_in_1_/S
+ VGND VGND VPWR VPWR mux_left_track_7.mux_l1_in_1_/X sky130_fd_sc_hd__mux2_1
XANTENNA_mem_left_track_39.sky130_fd_sc_hd__dfxtp_1_1__CLK prog_clk_0_FTB00/X VGND
+ VGND VPWR VPWR sky130_fd_sc_hd__diode_2
XFILLER_15_24 VGND VGND VPWR VPWR sky130_fd_sc_hd__fill_2
XFILLER_15_35 VGND VGND VPWR VPWR sky130_fd_sc_hd__decap_4
XFILLER_15_57 VGND VGND VPWR VPWR sky130_fd_sc_hd__fill_2
XFILLER_25_167 VGND VGND VPWR VPWR sky130_fd_sc_hd__fill_1
XFILLER_31_137 VGND VPWR VPWR VGND sky130_ef_sc_hd__decap_12
XTAP_104 VGND VPWR sky130_fd_sc_hd__tapvpwrvgnd_1
XTAP_115 VGND VPWR sky130_fd_sc_hd__tapvpwrvgnd_1
XTAP_126 VGND VPWR sky130_fd_sc_hd__tapvpwrvgnd_1
XTAP_137 VGND VPWR sky130_fd_sc_hd__tapvpwrvgnd_1
XTAP_148 VGND VPWR sky130_fd_sc_hd__tapvpwrvgnd_1
XFILLER_11_3 VGND VPWR VPWR VGND sky130_ef_sc_hd__decap_12
XANTENNA_mem_left_track_17.sky130_fd_sc_hd__dfxtp_1_1__CLK prog_clk_0_FTB00/X VGND
+ VGND VPWR VPWR sky130_fd_sc_hd__diode_2
XTAP_159 VGND VPWR sky130_fd_sc_hd__tapvpwrvgnd_1
Xmem_bottom_track_3.sky130_fd_sc_hd__dfxtp_1_0_ prog_clk_0_FTB00/X mux_bottom_track_1.mux_l3_in_0_/S
+ VGND VGND VPWR VPWR mux_bottom_track_3.mux_l1_in_1_/S sky130_fd_sc_hd__dfxtp_1
XANTENNA_mux_left_track_1.mux_l1_in_1__A0 left_bottom_grid_pin_37_ VGND VGND VPWR
+ VPWR sky130_fd_sc_hd__diode_2
XFILLER_26_67 VGND VGND VPWR VPWR sky130_fd_sc_hd__fill_2
XFILLER_21_181 VGND VPWR VPWR VGND sky130_ef_sc_hd__decap_12
XFILLER_3_38 VGND VGND VPWR VPWR sky130_fd_sc_hd__fill_2
XFILLER_3_27 VGND VGND VPWR VPWR sky130_fd_sc_hd__fill_1
XFILLER_8_141 VGND VGND VPWR VPWR sky130_fd_sc_hd__decap_6
XFILLER_8_163 VGND VGND VPWR VPWR sky130_fd_sc_hd__fill_2
XFILLER_12_181 VGND VGND VPWR VPWR sky130_fd_sc_hd__decap_4
XFILLER_5_133 VGND VGND VPWR VPWR sky130_fd_sc_hd__fill_2
XFILLER_5_166 VGND VGND VPWR VPWR sky130_fd_sc_hd__fill_2
XFILLER_32_221 VGND VGND VPWR VPWR sky130_fd_sc_hd__fill_2
XANTENNA_mux_bottom_track_7.mux_l1_in_0__A1 bottom_left_grid_pin_42_ VGND VGND VPWR
+ VPWR sky130_fd_sc_hd__diode_2
XFILLER_23_24 VGND VGND VPWR VPWR sky130_fd_sc_hd__fill_2
XFILLER_2_169 VGND VGND VPWR VPWR sky130_fd_sc_hd__decap_3
Xmem_bottom_track_9.sky130_fd_sc_hd__dfxtp_1_1_ prog_clk_0_FTB00/X mux_bottom_track_9.mux_l1_in_0_/S
+ VGND VGND VPWR VPWR mux_bottom_track_9.mux_l2_in_0_/S sky130_fd_sc_hd__dfxtp_1
XFILLER_0_17 VGND VGND VPWR VPWR sky130_fd_sc_hd__decap_8
XFILLER_9_26 VGND VGND VPWR VPWR sky130_fd_sc_hd__fill_2
XFILLER_9_37 VGND VGND VPWR VPWR sky130_fd_sc_hd__fill_2
XFILLER_9_48 VGND VGND VPWR VPWR sky130_fd_sc_hd__fill_2
XFILLER_14_221 VGND VGND VPWR VPWR sky130_fd_sc_hd__fill_2
XANTENNA_mem_bottom_track_7.sky130_fd_sc_hd__dfxtp_1_1__CLK prog_clk_0_FTB00/X VGND
+ VGND VPWR VPWR sky130_fd_sc_hd__diode_2
Xmux_left_track_15.mux_l1_in_0_ left_bottom_grid_pin_36_ chany_bottom_in[6] mux_left_track_15.mux_l1_in_0_/S
+ VGND VGND VPWR VPWR mux_left_track_15.mux_l1_in_0_/X sky130_fd_sc_hd__mux2_1
XFILLER_18_24 VGND VGND VPWR VPWR sky130_fd_sc_hd__decap_4
X_110_ chanx_left_in[0] VGND VGND VPWR VPWR chany_bottom_out[19] sky130_fd_sc_hd__buf_2
XANTENNA_mux_bottom_track_5.mux_l1_in_2__A1 bottom_left_grid_pin_49_ VGND VGND VPWR
+ VPWR sky130_fd_sc_hd__diode_2
X_041_ VGND VGND VPWR VPWR _041_/HI _041_/LO sky130_fd_sc_hd__conb_1
Xmux_left_track_27.mux_l2_in_0_ _048_/HI mux_left_track_27.mux_l1_in_0_/X mux_left_track_27.mux_l2_in_0_/S
+ VGND VGND VPWR VPWR mux_left_track_27.mux_l2_in_0_/X sky130_fd_sc_hd__mux2_1
XFILLER_20_47 VGND VGND VPWR VPWR sky130_fd_sc_hd__decap_4
XFILLER_28_121 VGND VPWR VPWR VGND sky130_ef_sc_hd__decap_12
XFILLER_28_165 VGND VPWR VPWR VGND sky130_ef_sc_hd__decap_12
XFILLER_6_27 VGND VGND VPWR VPWR sky130_fd_sc_hd__fill_1
Xmux_bottom_track_11.sky130_fd_sc_hd__buf_4_0_ mux_bottom_track_11.mux_l2_in_0_/X
+ VGND VGND VPWR VPWR _096_/A sky130_fd_sc_hd__buf_4
Xmux_left_track_7.mux_l1_in_0_ left_bottom_grid_pin_34_ chany_bottom_in[2] mux_left_track_7.mux_l1_in_1_/S
+ VGND VGND VPWR VPWR mux_left_track_7.mux_l1_in_0_/X sky130_fd_sc_hd__mux2_1
XFILLER_25_113 VGND VPWR VPWR VGND sky130_ef_sc_hd__decap_12
XFILLER_31_35 VGND VGND VPWR VPWR sky130_fd_sc_hd__fill_1
XFILLER_31_57 VGND VPWR VPWR VGND sky130_ef_sc_hd__decap_12
XFILLER_16_179 VGND VGND VPWR VPWR sky130_fd_sc_hd__fill_2
XFILLER_31_149 VGND VPWR VPWR VGND sky130_ef_sc_hd__decap_12
XTAP_105 VGND VPWR sky130_fd_sc_hd__tapvpwrvgnd_1
XTAP_116 VGND VPWR sky130_fd_sc_hd__tapvpwrvgnd_1
XTAP_127 VGND VPWR sky130_fd_sc_hd__tapvpwrvgnd_1
XTAP_138 VGND VPWR sky130_fd_sc_hd__tapvpwrvgnd_1
XTAP_149 VGND VPWR sky130_fd_sc_hd__tapvpwrvgnd_1
XFILLER_22_116 VGND VGND VPWR VPWR sky130_fd_sc_hd__decap_6
XFILLER_7_92 VGND VPWR VPWR VGND sky130_ef_sc_hd__decap_12
XFILLER_7_70 VGND VGND VPWR VPWR sky130_fd_sc_hd__decap_4
XANTENNA_mem_bottom_track_3.sky130_fd_sc_hd__dfxtp_1_1__D mux_bottom_track_3.mux_l1_in_1_/S
+ VGND VGND VPWR VPWR sky130_fd_sc_hd__diode_2
XANTENNA_mux_left_track_1.mux_l1_in_1__A1 left_bottom_grid_pin_35_ VGND VGND VPWR
+ VPWR sky130_fd_sc_hd__diode_2
XFILLER_21_193 VGND VPWR VPWR VGND sky130_ef_sc_hd__decap_12
XFILLER_8_186 VGND VGND VPWR VPWR sky130_fd_sc_hd__fill_2
Xmem_bottom_track_11.sky130_fd_sc_hd__dfxtp_1_1_ prog_clk_0_FTB00/X mux_bottom_track_11.mux_l1_in_0_/S
+ VGND VGND VPWR VPWR mux_bottom_track_11.mux_l2_in_0_/S sky130_fd_sc_hd__dfxtp_1
XFILLER_5_189 VGND VGND VPWR VPWR sky130_fd_sc_hd__decap_4
XFILLER_5_145 VGND VGND VPWR VPWR sky130_fd_sc_hd__fill_1
XANTENNA_mux_bottom_track_17.mux_l1_in_0__A0 chanx_left_in[9] VGND VGND VPWR VPWR
+ sky130_fd_sc_hd__diode_2
Xmem_left_track_21.sky130_fd_sc_hd__dfxtp_1_1_ prog_clk_0_FTB00/X mux_left_track_21.mux_l1_in_0_/S
+ VGND VGND VPWR VPWR mux_left_track_21.mux_l2_in_0_/S sky130_fd_sc_hd__dfxtp_1
XFILLER_4_82 VGND VGND VPWR VPWR sky130_fd_sc_hd__fill_2
Xmem_bottom_track_9.sky130_fd_sc_hd__dfxtp_1_0_ prog_clk_0_FTB00/X mux_bottom_track_7.mux_l3_in_0_/S
+ VGND VGND VPWR VPWR mux_bottom_track_9.mux_l1_in_0_/S sky130_fd_sc_hd__dfxtp_1
XFILLER_2_126 VGND VGND VPWR VPWR sky130_fd_sc_hd__fill_2
XFILLER_0_29 VGND VGND VPWR VPWR sky130_fd_sc_hd__decap_8
XFILLER_9_16 VGND VGND VPWR VPWR sky130_fd_sc_hd__decap_4
XFILLER_11_203 VGND VGND VPWR VPWR sky130_fd_sc_hd__fill_2
XFILLER_1_3 VGND VGND VPWR VPWR sky130_fd_sc_hd__fill_1
X_040_ VGND VGND VPWR VPWR _040_/HI _040_/LO sky130_fd_sc_hd__conb_1
XANTENNA_mem_left_track_7.sky130_fd_sc_hd__dfxtp_1_1__CLK prog_clk_0_FTB00/X VGND
+ VGND VPWR VPWR sky130_fd_sc_hd__diode_2
XANTENNA_mem_bottom_track_11.sky130_fd_sc_hd__dfxtp_1_0__CLK prog_clk_0_FTB00/X VGND
+ VGND VPWR VPWR sky130_fd_sc_hd__diode_2
XFILLER_20_26 VGND VGND VPWR VPWR sky130_fd_sc_hd__fill_2
XFILLER_29_57 VGND VPWR VPWR VGND sky130_ef_sc_hd__decap_12
XFILLER_28_133 VGND VGND VPWR VPWR sky130_fd_sc_hd__decap_6
XFILLER_28_177 VGND VPWR VPWR VGND sky130_ef_sc_hd__decap_12
XFILLER_3_221 VGND VGND VPWR VPWR sky130_fd_sc_hd__fill_2
XFILLER_19_111 VGND VGND VPWR VPWR sky130_fd_sc_hd__fill_1
XFILLER_19_166 VGND VGND VPWR VPWR sky130_fd_sc_hd__fill_2
XFILLER_15_48 VGND VGND VPWR VPWR sky130_fd_sc_hd__fill_2
XFILLER_25_125 VGND VPWR VPWR VGND sky130_ef_sc_hd__decap_12
XFILLER_25_169 VGND VPWR VPWR VGND sky130_ef_sc_hd__decap_12
XANTENNA_mem_bottom_track_25.sky130_fd_sc_hd__dfxtp_1_1__CLK prog_clk_0_FTB00/X VGND
+ VGND VPWR VPWR sky130_fd_sc_hd__diode_2
Xmux_left_track_27.mux_l1_in_0_ left_bottom_grid_pin_34_ chany_bottom_in[12] mux_left_track_27.mux_l1_in_0_/S
+ VGND VGND VPWR VPWR mux_left_track_27.mux_l1_in_0_/X sky130_fd_sc_hd__mux2_1
XFILLER_31_69 VGND VGND VPWR VPWR sky130_fd_sc_hd__decap_8
Xmux_left_track_39.mux_l2_in_0_ _055_/HI mux_left_track_39.mux_l1_in_0_/X ccff_tail
+ VGND VGND VPWR VPWR mux_left_track_39.mux_l2_in_0_/X sky130_fd_sc_hd__mux2_1
XTAP_106 VGND VPWR sky130_fd_sc_hd__tapvpwrvgnd_1
XTAP_117 VGND VPWR sky130_fd_sc_hd__tapvpwrvgnd_1
XTAP_128 VGND VPWR sky130_fd_sc_hd__tapvpwrvgnd_1
XTAP_139 VGND VPWR sky130_fd_sc_hd__tapvpwrvgnd_1
XPHY_0 VGND VGND VPWR VPWR sky130_fd_sc_hd__decap_3
XFILLER_22_106 VGND VGND VPWR VPWR sky130_fd_sc_hd__decap_3
XFILLER_22_128 VGND VPWR VPWR VGND sky130_ef_sc_hd__decap_12
XANTENNA_mux_bottom_track_25.mux_l1_in_0__A0 bottom_left_grid_pin_49_ VGND VGND VPWR
+ VPWR sky130_fd_sc_hd__diode_2
Xmux_bottom_track_13.mux_l2_in_0_ _061_/HI mux_bottom_track_13.mux_l1_in_0_/X mux_bottom_track_13.mux_l2_in_0_/S
+ VGND VGND VPWR VPWR mux_bottom_track_13.mux_l2_in_0_/X sky130_fd_sc_hd__mux2_1
Xmem_bottom_track_11.sky130_fd_sc_hd__dfxtp_1_0_ prog_clk_0_FTB00/X mux_bottom_track_9.mux_l2_in_0_/S
+ VGND VGND VPWR VPWR mux_bottom_track_11.mux_l1_in_0_/S sky130_fd_sc_hd__dfxtp_1
XFILLER_12_49 VGND VGND VPWR VPWR sky130_fd_sc_hd__decap_4
XANTENNA_mux_left_track_15.mux_l1_in_0__A0 left_bottom_grid_pin_36_ VGND VGND VPWR
+ VPWR sky130_fd_sc_hd__diode_2
XANTENNA_mux_bottom_track_17.mux_l1_in_0__A1 bottom_left_grid_pin_45_ VGND VGND VPWR
+ VPWR sky130_fd_sc_hd__diode_2
Xmem_left_track_21.sky130_fd_sc_hd__dfxtp_1_0_ prog_clk_0_FTB00/X mux_left_track_19.mux_l2_in_0_/S
+ VGND VGND VPWR VPWR mux_left_track_21.mux_l1_in_0_/S sky130_fd_sc_hd__dfxtp_1
Xmux_bottom_track_27.sky130_fd_sc_hd__buf_4_0_ mux_bottom_track_27.mux_l2_in_0_/X
+ VGND VGND VPWR VPWR _104_/A sky130_fd_sc_hd__buf_4
XFILLER_23_59 VGND VGND VPWR VPWR sky130_fd_sc_hd__decap_4
XFILLER_2_138 VGND VGND VPWR VPWR sky130_fd_sc_hd__fill_2
XANTENNA_mux_left_track_5.mux_l1_in_0__A0 left_top_grid_pin_1_ VGND VGND VPWR VPWR
+ sky130_fd_sc_hd__diode_2
Xmem_bottom_track_17.sky130_fd_sc_hd__dfxtp_1_1_ prog_clk_0_FTB00/X mux_bottom_track_17.mux_l1_in_0_/S
+ VGND VGND VPWR VPWR mux_bottom_track_17.mux_l2_in_0_/S sky130_fd_sc_hd__dfxtp_1
XFILLER_7_219 VGND VGND VPWR VPWR sky130_fd_sc_hd__decap_4
X_099_ _099_/A VGND VGND VPWR VPWR chany_bottom_out[8] sky130_fd_sc_hd__buf_2
XFILLER_27_3 VGND VGND VPWR VPWR sky130_fd_sc_hd__fill_1
XFILLER_1_84 VGND VGND VPWR VPWR sky130_fd_sc_hd__fill_2
XANTENNA_mem_bottom_track_1.sky130_fd_sc_hd__dfxtp_1_2__CLK prog_clk_0_FTB00/X VGND
+ VGND VPWR VPWR sky130_fd_sc_hd__diode_2
Xmem_left_track_27.sky130_fd_sc_hd__dfxtp_1_1_ prog_clk_0_FTB00/X mux_left_track_27.mux_l1_in_0_/S
+ VGND VGND VPWR VPWR mux_left_track_27.mux_l2_in_0_/S sky130_fd_sc_hd__dfxtp_1
XFILLER_20_16 VGND VGND VPWR VPWR sky130_fd_sc_hd__decap_4
XFILLER_29_69 VGND VPWR VPWR VGND sky130_ef_sc_hd__decap_12
XFILLER_28_189 VGND VGND VPWR VPWR sky130_fd_sc_hd__decap_6
XFILLER_10_60 VGND VGND VPWR VPWR sky130_fd_sc_hd__fill_2
XFILLER_10_82 VGND VGND VPWR VPWR sky130_fd_sc_hd__fill_2
XFILLER_19_134 VGND VPWR VPWR VGND sky130_ef_sc_hd__decap_12
XANTENNA_mem_left_track_29.sky130_fd_sc_hd__dfxtp_1_0__CLK prog_clk_0_FTB00/X VGND
+ VGND VPWR VPWR sky130_fd_sc_hd__diode_2
XFILLER_33_181 VGND VPWR VPWR VGND sky130_ef_sc_hd__decap_12
XFILLER_25_137 VGND VPWR VPWR VGND sky130_ef_sc_hd__decap_12
XFILLER_31_15 VGND VPWR VPWR VGND sky130_ef_sc_hd__decap_12
XTAP_107 VGND VPWR sky130_fd_sc_hd__tapvpwrvgnd_1
XTAP_118 VGND VPWR sky130_fd_sc_hd__tapvpwrvgnd_1
XTAP_129 VGND VPWR sky130_fd_sc_hd__tapvpwrvgnd_1
XPHY_1 VGND VGND VPWR VPWR sky130_fd_sc_hd__decap_3
XANTENNA_mux_left_track_23.mux_l1_in_0__A0 left_bottom_grid_pin_40_ VGND VGND VPWR
+ VPWR sky130_fd_sc_hd__diode_2
XFILLER_30_195 VGND VGND VPWR VPWR sky130_fd_sc_hd__fill_1
XFILLER_26_15 VGND VPWR VPWR VGND sky130_ef_sc_hd__decap_12
XFILLER_13_129 VGND VGND VPWR VPWR sky130_fd_sc_hd__fill_2
XFILLER_26_59 VGND VGND VPWR VPWR sky130_fd_sc_hd__fill_2
XANTENNA_mux_bottom_track_25.mux_l1_in_0__A1 bottom_right_grid_pin_1_ VGND VGND VPWR
+ VPWR sky130_fd_sc_hd__diode_2
XFILLER_8_111 VGND VGND VPWR VPWR sky130_fd_sc_hd__decap_6
XFILLER_12_195 VGND VGND VPWR VPWR sky130_fd_sc_hd__fill_1
XFILLER_16_92 VGND VGND VPWR VPWR sky130_fd_sc_hd__fill_2
XFILLER_8_199 VGND VGND VPWR VPWR sky130_fd_sc_hd__fill_2
XANTENNA_mux_left_track_15.mux_l1_in_0__A1 chany_bottom_in[6] VGND VGND VPWR VPWR