* NGSPICE file created from sb_2__2_.ext - technology: sky130A

* Black-box entry subcircuit for sky130_fd_sc_hd__tapvpwrvgnd_1 abstract view
.subckt sky130_fd_sc_hd__tapvpwrvgnd_1 VGND VPWR
.ends

* Black-box entry subcircuit for sky130_ef_sc_hd__decap_12 abstract view
.subckt sky130_ef_sc_hd__decap_12 VGND VPWR VPB VNB
.ends

* Black-box entry subcircuit for sky130_fd_sc_hd__fill_2 abstract view
.subckt sky130_fd_sc_hd__fill_2 VGND VNB VPB VPWR
.ends

* Black-box entry subcircuit for sky130_fd_sc_hd__mux2_1 abstract view
.subckt sky130_fd_sc_hd__mux2_1 A0 A1 S VGND VNB VPB VPWR X
.ends

* Black-box entry subcircuit for sky130_fd_sc_hd__dfxtp_1 abstract view
.subckt sky130_fd_sc_hd__dfxtp_1 CLK D VGND VNB VPB VPWR Q
.ends

* Black-box entry subcircuit for sky130_fd_sc_hd__diode_2 abstract view
.subckt sky130_fd_sc_hd__diode_2 DIODE VGND VNB VPB VPWR
.ends

* Black-box entry subcircuit for sky130_fd_sc_hd__decap_4 abstract view
.subckt sky130_fd_sc_hd__decap_4 VGND VNB VPB VPWR
.ends

* Black-box entry subcircuit for sky130_fd_sc_hd__decap_3 abstract view
.subckt sky130_fd_sc_hd__decap_3 VGND VNB VPB VPWR
.ends

* Black-box entry subcircuit for sky130_fd_sc_hd__conb_1 abstract view
.subckt sky130_fd_sc_hd__conb_1 VGND VNB VPB VPWR HI LO
.ends

* Black-box entry subcircuit for sky130_fd_sc_hd__buf_2 abstract view
.subckt sky130_fd_sc_hd__buf_2 A VGND VNB VPB VPWR X
.ends

* Black-box entry subcircuit for sky130_fd_sc_hd__clkbuf_1 abstract view
.subckt sky130_fd_sc_hd__clkbuf_1 A VGND VNB VPB VPWR X
.ends

* Black-box entry subcircuit for sky130_fd_sc_hd__fill_1 abstract view
.subckt sky130_fd_sc_hd__fill_1 VGND VNB VPB VPWR
.ends

* Black-box entry subcircuit for sky130_fd_sc_hd__decap_8 abstract view
.subckt sky130_fd_sc_hd__decap_8 VGND VNB VPB VPWR
.ends

* Black-box entry subcircuit for sky130_fd_sc_hd__decap_6 abstract view
.subckt sky130_fd_sc_hd__decap_6 VGND VNB VPB VPWR
.ends

* Black-box entry subcircuit for sky130_fd_sc_hd__buf_8 abstract view
.subckt sky130_fd_sc_hd__buf_8 A VGND VNB VPB VPWR X
.ends

* Black-box entry subcircuit for sky130_fd_sc_hd__dlymetal6s2s_1 abstract view
.subckt sky130_fd_sc_hd__dlymetal6s2s_1 A VGND VNB VPB VPWR X
.ends

.subckt sb_2__2_ SC_IN_BOT SC_OUT_BOT VGND VPWR bottom_left_grid_pin_42_ bottom_left_grid_pin_43_
+ bottom_left_grid_pin_44_ bottom_left_grid_pin_45_ bottom_left_grid_pin_46_ bottom_left_grid_pin_47_
+ bottom_left_grid_pin_48_ bottom_left_grid_pin_49_ bottom_right_grid_pin_1_ ccff_head
+ ccff_tail chanx_left_in[0] chanx_left_in[10] chanx_left_in[11] chanx_left_in[12]
+ chanx_left_in[13] chanx_left_in[14] chanx_left_in[15] chanx_left_in[16] chanx_left_in[17]
+ chanx_left_in[18] chanx_left_in[19] chanx_left_in[1] chanx_left_in[2] chanx_left_in[3]
+ chanx_left_in[4] chanx_left_in[5] chanx_left_in[6] chanx_left_in[7] chanx_left_in[8]
+ chanx_left_in[9] chanx_left_out[0] chanx_left_out[10] chanx_left_out[11] chanx_left_out[12]
+ chanx_left_out[13] chanx_left_out[14] chanx_left_out[15] chanx_left_out[16] chanx_left_out[17]
+ chanx_left_out[18] chanx_left_out[19] chanx_left_out[1] chanx_left_out[2] chanx_left_out[3]
+ chanx_left_out[4] chanx_left_out[5] chanx_left_out[6] chanx_left_out[7] chanx_left_out[8]
+ chanx_left_out[9] chany_bottom_in[0] chany_bottom_in[10] chany_bottom_in[11] chany_bottom_in[12]
+ chany_bottom_in[13] chany_bottom_in[14] chany_bottom_in[15] chany_bottom_in[16]
+ chany_bottom_in[17] chany_bottom_in[18] chany_bottom_in[19] chany_bottom_in[1] chany_bottom_in[2]
+ chany_bottom_in[3] chany_bottom_in[4] chany_bottom_in[5] chany_bottom_in[6] chany_bottom_in[7]
+ chany_bottom_in[8] chany_bottom_in[9] chany_bottom_out[0] chany_bottom_out[10] chany_bottom_out[11]
+ chany_bottom_out[12] chany_bottom_out[13] chany_bottom_out[14] chany_bottom_out[15]
+ chany_bottom_out[16] chany_bottom_out[17] chany_bottom_out[18] chany_bottom_out[19]
+ chany_bottom_out[1] chany_bottom_out[2] chany_bottom_out[3] chany_bottom_out[4]
+ chany_bottom_out[5] chany_bottom_out[6] chany_bottom_out[7] chany_bottom_out[8]
+ chany_bottom_out[9] left_bottom_grid_pin_34_ left_bottom_grid_pin_35_ left_bottom_grid_pin_36_
+ left_bottom_grid_pin_37_ left_bottom_grid_pin_38_ left_bottom_grid_pin_39_ left_bottom_grid_pin_40_
+ left_bottom_grid_pin_41_ left_top_grid_pin_1_ prog_clk_0_S_in
XTAP_188 VGND VPWR sky130_fd_sc_hd__tapvpwrvgnd_1
XTAP_177 VGND VPWR sky130_fd_sc_hd__tapvpwrvgnd_1
XFILLER_22_177 VGND VPWR VPWR VGND sky130_ef_sc_hd__decap_12
XFILLER_13_133 VGND VPWR VPWR VGND sky130_ef_sc_hd__decap_12
XFILLER_9_137 VGND VGND VPWR VPWR sky130_fd_sc_hd__fill_2
XFILLER_13_166 VGND VGND VPWR VPWR sky130_fd_sc_hd__fill_2
Xmux_bottom_track_3.mux_l1_in_1_ input8/X input6/X mux_bottom_track_3.mux_l1_in_1_/S
+ VGND VGND VPWR VPWR mux_bottom_track_3.mux_l1_in_1_/X sky130_fd_sc_hd__mux2_1
XFILLER_3_78 VGND VGND VPWR VPWR sky130_fd_sc_hd__fill_2
Xmem_left_track_17.sky130_fd_sc_hd__dfxtp_1_0_ prog_clk_0_FTB00/X mux_left_track_15.mux_l2_in_0_/S
+ VGND VGND VPWR VPWR mux_left_track_17.mux_l1_in_0_/S sky130_fd_sc_hd__dfxtp_1
XFILLER_12_32 VGND VGND VPWR VPWR sky130_fd_sc_hd__fill_2
XFILLER_12_43 VGND VGND VPWR VPWR sky130_fd_sc_hd__fill_2
XFILLER_12_87 VGND VGND VPWR VPWR sky130_fd_sc_hd__fill_2
XFILLER_5_162 VGND VGND VPWR VPWR sky130_fd_sc_hd__fill_2
XANTENNA_mem_left_track_9.sky130_fd_sc_hd__dfxtp_1_0__CLK prog_clk_0_FTB00/X VGND
+ VGND VPWR VPWR sky130_fd_sc_hd__diode_2
XFILLER_5_195 VGND VGND VPWR VPWR sky130_fd_sc_hd__fill_2
XFILLER_30_209 VGND VPWR VPWR VGND sky130_ef_sc_hd__decap_12
XANTENNA_input55_A left_bottom_grid_pin_37_ VGND VGND VPWR VPWR sky130_fd_sc_hd__diode_2
XANTENNA_mux_bottom_track_1.mux_l3_in_0__S mux_bottom_track_1.mux_l3_in_0_/S VGND
+ VGND VPWR VPWR sky130_fd_sc_hd__diode_2
XFILLER_0_13 VGND VGND VPWR VPWR sky130_fd_sc_hd__fill_2
XFILLER_0_57 VGND VGND VPWR VPWR sky130_fd_sc_hd__fill_2
XFILLER_9_11 VGND VGND VPWR VPWR sky130_fd_sc_hd__fill_2
XANTENNA_mem_left_track_21.sky130_fd_sc_hd__dfxtp_1_0__CLK prog_clk_0_FTB00/X VGND
+ VGND VPWR VPWR sky130_fd_sc_hd__diode_2
XANTENNA_mem_bottom_track_27.sky130_fd_sc_hd__dfxtp_1_0__CLK prog_clk_0_FTB00/X VGND
+ VGND VPWR VPWR sky130_fd_sc_hd__diode_2
XFILLER_18_20 VGND VGND VPWR VPWR sky130_fd_sc_hd__fill_2
XFILLER_18_31 VGND VGND VPWR VPWR sky130_fd_sc_hd__decap_4
XFILLER_15_6 VGND VGND VPWR VPWR sky130_fd_sc_hd__decap_3
XFILLER_22_7 VGND VGND VPWR VPWR sky130_fd_sc_hd__fill_2
Xmux_bottom_track_17.mux_l1_in_0_ input31/X input5/X mux_bottom_track_17.mux_l1_in_0_/S
+ VGND VGND VPWR VPWR mux_bottom_track_17.mux_l1_in_0_/X sky130_fd_sc_hd__mux2_1
Xmux_bottom_track_7.mux_l2_in_1__105 VGND VGND VPWR VPWR mux_bottom_track_7.mux_l2_in_1_/A0
+ mux_bottom_track_7.mux_l2_in_1__105/LO sky130_fd_sc_hd__conb_1
XFILLER_20_21 VGND VGND VPWR VPWR sky130_fd_sc_hd__fill_2
XANTENNA_mem_left_track_35.sky130_fd_sc_hd__dfxtp_1_1__CLK prog_clk_0_FTB00/X VGND
+ VGND VPWR VPWR sky130_fd_sc_hd__diode_2
XANTENNA_input18_A chanx_left_in[15] VGND VGND VPWR VPWR sky130_fd_sc_hd__diode_2
Xmux_bottom_track_29.mux_l2_in_0_ mux_bottom_track_29.mux_l2_in_0_/A0 mux_bottom_track_29.mux_l1_in_0_/X
+ mux_bottom_track_29.mux_l2_in_0_/S VGND VGND VPWR VPWR mux_bottom_track_29.mux_l2_in_0_/X
+ sky130_fd_sc_hd__mux2_1
XFILLER_6_23 VGND VGND VPWR VPWR sky130_fd_sc_hd__decap_4
XFILLER_6_12 VGND VGND VPWR VPWR sky130_fd_sc_hd__fill_2
XANTENNA_mem_left_track_13.sky130_fd_sc_hd__dfxtp_1_1__CLK prog_clk_0_FTB00/X VGND
+ VGND VPWR VPWR sky130_fd_sc_hd__diode_2
XFILLER_1_219 VGND VGND VPWR VPWR sky130_fd_sc_hd__decap_4
XANTENNA_mem_bottom_track_19.sky130_fd_sc_hd__dfxtp_1_1__CLK prog_clk_0_FTB00/X VGND
+ VGND VPWR VPWR sky130_fd_sc_hd__diode_2
Xoutput75 _073_/X VGND VGND VPWR VPWR chanx_left_out[2] sky130_fd_sc_hd__buf_2
Xoutput64 _081_/X VGND VGND VPWR VPWR chanx_left_out[10] sky130_fd_sc_hd__buf_2
Xmux_bottom_track_3.sky130_fd_sc_hd__buf_4_0_ mux_bottom_track_3.mux_l3_in_0_/X VGND
+ VGND VPWR VPWR _092_/A sky130_fd_sc_hd__clkbuf_1
Xoutput86 _103_/X VGND VGND VPWR VPWR chany_bottom_out[12] sky130_fd_sc_hd__buf_2
Xoutput97 _095_/X VGND VGND VPWR VPWR chany_bottom_out[4] sky130_fd_sc_hd__buf_2
XFILLER_31_167 VGND VGND VPWR VPWR sky130_fd_sc_hd__fill_1
XFILLER_16_120 VGND VGND VPWR VPWR sky130_fd_sc_hd__fill_2
XFILLER_16_197 VGND VGND VPWR VPWR sky130_fd_sc_hd__fill_1
XTAP_189 VGND VPWR sky130_fd_sc_hd__tapvpwrvgnd_1
XTAP_178 VGND VPWR sky130_fd_sc_hd__tapvpwrvgnd_1
XTAP_101 VGND VPWR sky130_fd_sc_hd__tapvpwrvgnd_1
XTAP_112 VGND VPWR sky130_fd_sc_hd__tapvpwrvgnd_1
XTAP_123 VGND VPWR sky130_fd_sc_hd__tapvpwrvgnd_1
XTAP_134 VGND VPWR sky130_fd_sc_hd__tapvpwrvgnd_1
XTAP_145 VGND VPWR sky130_fd_sc_hd__tapvpwrvgnd_1
XTAP_156 VGND VPWR sky130_fd_sc_hd__tapvpwrvgnd_1
XTAP_167 VGND VPWR sky130_fd_sc_hd__tapvpwrvgnd_1
XFILLER_22_112 VGND VGND VPWR VPWR sky130_fd_sc_hd__decap_8
XFILLER_22_189 VGND VGND VPWR VPWR sky130_fd_sc_hd__decap_6
XFILLER_9_105 VGND VGND VPWR VPWR sky130_fd_sc_hd__fill_2
XFILLER_13_145 VGND VGND VPWR VPWR sky130_fd_sc_hd__decap_8
XFILLER_13_189 VGND VGND VPWR VPWR sky130_fd_sc_hd__decap_3
Xmux_bottom_track_3.mux_l1_in_0_ input4/X input2/X mux_bottom_track_3.mux_l1_in_1_/S
+ VGND VGND VPWR VPWR mux_bottom_track_3.mux_l1_in_0_/X sky130_fd_sc_hd__mux2_1
XFILLER_3_57 VGND VGND VPWR VPWR sky130_fd_sc_hd__fill_1
XFILLER_3_13 VGND VGND VPWR VPWR sky130_fd_sc_hd__decap_4
XANTENNA_mem_left_track_27.sky130_fd_sc_hd__dfxtp_1_0__D mux_left_track_25.mux_l2_in_0_/S
+ VGND VGND VPWR VPWR sky130_fd_sc_hd__diode_2
XFILLER_10_137 VGND VGND VPWR VPWR sky130_fd_sc_hd__decap_3
XFILLER_10_159 VGND VGND VPWR VPWR sky130_fd_sc_hd__fill_2
XFILLER_12_11 VGND VGND VPWR VPWR sky130_fd_sc_hd__decap_4
XFILLER_12_77 VGND VGND VPWR VPWR sky130_fd_sc_hd__fill_2
XFILLER_5_185 VGND VGND VPWR VPWR sky130_fd_sc_hd__fill_2
XFILLER_5_141 VGND VGND VPWR VPWR sky130_fd_sc_hd__decap_4
XANTENNA_mem_bottom_track_3.sky130_fd_sc_hd__dfxtp_1_1__CLK prog_clk_0_FTB00/X VGND
+ VGND VPWR VPWR sky130_fd_sc_hd__diode_2
XFILLER_23_32 VGND VGND VPWR VPWR sky130_fd_sc_hd__fill_2
XFILLER_23_43 VGND VGND VPWR VPWR sky130_fd_sc_hd__fill_2
XFILLER_23_54 VGND VGND VPWR VPWR sky130_fd_sc_hd__fill_2
XFILLER_2_188 VGND VGND VPWR VPWR sky130_fd_sc_hd__fill_2
XANTENNA_input48_A chany_bottom_in[6] VGND VGND VPWR VPWR sky130_fd_sc_hd__diode_2
XFILLER_0_25 VGND VGND VPWR VPWR sky130_fd_sc_hd__decap_3
Xmux_left_track_9.sky130_fd_sc_hd__buf_4_0_ mux_left_track_9.mux_l2_in_0_/X VGND VGND
+ VPWR VPWR _075_/A sky130_fd_sc_hd__clkbuf_1
XFILLER_18_10 VGND VGND VPWR VPWR sky130_fd_sc_hd__fill_1
XFILLER_18_87 VGND VGND VPWR VPWR sky130_fd_sc_hd__fill_2
XFILLER_18_98 VGND VGND VPWR VPWR sky130_fd_sc_hd__fill_2
XFILLER_11_221 VGND VGND VPWR VPWR sky130_fd_sc_hd__fill_2
Xmem_bottom_track_25.sky130_fd_sc_hd__dfxtp_1_1_ prog_clk_0_FTB00/X mux_bottom_track_25.mux_l1_in_1_/S
+ VGND VGND VPWR VPWR mux_bottom_track_25.mux_l2_in_0_/S sky130_fd_sc_hd__dfxtp_1
Xmux_left_track_31.sky130_fd_sc_hd__buf_4_0_ mux_left_track_31.mux_l2_in_0_/X VGND
+ VGND VPWR VPWR _086_/A sky130_fd_sc_hd__clkbuf_1
XFILLER_29_31 VGND VGND VPWR VPWR sky130_fd_sc_hd__decap_8
XFILLER_29_42 VGND VPWR VPWR VGND sky130_ef_sc_hd__decap_12
XFILLER_28_195 VGND VGND VPWR VPWR sky130_fd_sc_hd__fill_1
XFILLER_6_46 VGND VGND VPWR VPWR sky130_fd_sc_hd__fill_2
XFILLER_20_5 VGND VGND VPWR VPWR sky130_fd_sc_hd__fill_2
Xmem_left_track_35.sky130_fd_sc_hd__dfxtp_1_1_ prog_clk_0_FTB00/X mux_left_track_35.mux_l1_in_0_/S
+ VGND VGND VPWR VPWR mux_left_track_35.mux_l2_in_0_/S sky130_fd_sc_hd__dfxtp_1
XFILLER_15_77 VGND VGND VPWR VPWR sky130_fd_sc_hd__decap_4
Xoutput87 _104_/X VGND VGND VPWR VPWR chany_bottom_out[13] sky130_fd_sc_hd__buf_2
Xoutput98 _096_/X VGND VGND VPWR VPWR chany_bottom_out[5] sky130_fd_sc_hd__buf_2
Xoutput76 _074_/X VGND VGND VPWR VPWR chanx_left_out[3] sky130_fd_sc_hd__buf_2
Xoutput65 _082_/X VGND VGND VPWR VPWR chanx_left_out[11] sky130_fd_sc_hd__buf_2
XANTENNA_input30_A chanx_left_in[8] VGND VGND VPWR VPWR sky130_fd_sc_hd__diode_2
XFILLER_31_113 VGND VPWR VPWR VGND sky130_ef_sc_hd__decap_12
XFILLER_16_143 VGND VGND VPWR VPWR sky130_fd_sc_hd__fill_2
XFILLER_16_187 VGND VGND VPWR VPWR sky130_fd_sc_hd__fill_2
XTAP_179 VGND VPWR sky130_fd_sc_hd__tapvpwrvgnd_1
XTAP_102 VGND VPWR sky130_fd_sc_hd__tapvpwrvgnd_1
XTAP_113 VGND VPWR sky130_fd_sc_hd__tapvpwrvgnd_1
XTAP_124 VGND VPWR sky130_fd_sc_hd__tapvpwrvgnd_1
XTAP_135 VGND VPWR sky130_fd_sc_hd__tapvpwrvgnd_1
XTAP_146 VGND VPWR sky130_fd_sc_hd__tapvpwrvgnd_1
XTAP_157 VGND VPWR sky130_fd_sc_hd__tapvpwrvgnd_1
Xmux_left_track_25.sky130_fd_sc_hd__buf_4_0_ mux_left_track_25.mux_l2_in_0_/X VGND
+ VGND VPWR VPWR _083_/A sky130_fd_sc_hd__clkbuf_1
XTAP_168 VGND VPWR sky130_fd_sc_hd__tapvpwrvgnd_1
XFILLER_22_124 VGND VPWR VPWR VGND sky130_ef_sc_hd__decap_12
Xmem_bottom_track_3.sky130_fd_sc_hd__dfxtp_1_2_ prog_clk_0_FTB00/X mux_bottom_track_3.mux_l2_in_1_/S
+ VGND VGND VPWR VPWR mux_bottom_track_3.mux_l3_in_0_/S sky130_fd_sc_hd__dfxtp_1
Xmux_bottom_track_29.mux_l1_in_0_ input18/X input3/X mux_bottom_track_29.mux_l1_in_0_/S
+ VGND VGND VPWR VPWR mux_bottom_track_29.mux_l1_in_0_/X sky130_fd_sc_hd__mux2_1
XFILLER_8_194 VGND VGND VPWR VPWR sky130_fd_sc_hd__fill_2
XFILLER_27_205 VGND VPWR VPWR VGND sky130_ef_sc_hd__decap_12
XFILLER_10_127 VGND VGND VPWR VPWR sky130_fd_sc_hd__decap_4
XFILLER_12_56 VGND VGND VPWR VPWR sky130_fd_sc_hd__fill_2
XFILLER_5_6 VGND VGND VPWR VPWR sky130_fd_sc_hd__fill_2
XFILLER_18_205 VGND VGND VPWR VPWR sky130_fd_sc_hd__fill_2
Xmux_left_track_19.sky130_fd_sc_hd__buf_4_0_ mux_left_track_19.mux_l2_in_0_/X VGND
+ VGND VPWR VPWR _080_/A sky130_fd_sc_hd__clkbuf_1
Xmux_left_track_7.mux_l3_in_0_ mux_left_track_7.mux_l2_in_1_/X mux_left_track_7.mux_l2_in_0_/X
+ mux_left_track_7.mux_l3_in_0_/S VGND VGND VPWR VPWR mux_left_track_7.mux_l3_in_0_/X
+ sky130_fd_sc_hd__mux2_1
XFILLER_23_77 VGND VPWR VPWR VGND sky130_ef_sc_hd__decap_12
XANTENNA_mem_left_track_3.sky130_fd_sc_hd__dfxtp_1_1__CLK prog_clk_0_FTB00/X VGND
+ VGND VPWR VPWR sky130_fd_sc_hd__diode_2
XFILLER_9_79 VGND VGND VPWR VPWR sky130_fd_sc_hd__fill_2
XFILLER_18_44 VGND VGND VPWR VPWR sky130_fd_sc_hd__fill_2
XFILLER_7_215 VGND VGND VPWR VPWR sky130_fd_sc_hd__decap_3
Xmux_left_track_7.mux_l2_in_1_ mux_left_track_7.mux_l2_in_1_/A0 input58/X mux_left_track_7.mux_l2_in_1_/S
+ VGND VGND VPWR VPWR mux_left_track_7.mux_l2_in_1_/X sky130_fd_sc_hd__mux2_1
XANTENNA_input60_A left_top_grid_pin_1_ VGND VGND VPWR VPWR sky130_fd_sc_hd__diode_2
Xmem_bottom_track_25.sky130_fd_sc_hd__dfxtp_1_0_ prog_clk_0_FTB00/X mux_bottom_track_23.mux_l2_in_0_/S
+ VGND VGND VPWR VPWR mux_bottom_track_25.mux_l1_in_1_/S sky130_fd_sc_hd__dfxtp_1
XANTENNA_mem_bottom_track_21.sky130_fd_sc_hd__dfxtp_1_1__CLK prog_clk_0_FTB00/X VGND
+ VGND VPWR VPWR sky130_fd_sc_hd__diode_2
XFILLER_28_141 VGND VPWR VPWR VGND sky130_ef_sc_hd__decap_12
XFILLER_29_54 VGND VGND VPWR VPWR sky130_fd_sc_hd__fill_2
XFILLER_6_36 VGND VGND VPWR VPWR sky130_fd_sc_hd__fill_1
Xmem_left_track_35.sky130_fd_sc_hd__dfxtp_1_0_ prog_clk_0_FTB00/X mux_left_track_33.mux_l2_in_0_/S
+ VGND VGND VPWR VPWR mux_left_track_35.mux_l1_in_0_/S sky130_fd_sc_hd__dfxtp_1
XFILLER_19_141 VGND VPWR VPWR VGND sky130_ef_sc_hd__decap_12
Xmux_bottom_track_17.mux_l2_in_0__131 VGND VGND VPWR VPWR mux_bottom_track_17.mux_l2_in_0_/A0
+ mux_bottom_track_17.mux_l2_in_0__131/LO sky130_fd_sc_hd__conb_1
XFILLER_25_111 VGND VGND VPWR VPWR sky130_fd_sc_hd__fill_1
XFILLER_31_77 VGND VGND VPWR VPWR sky130_fd_sc_hd__fill_2
XFILLER_31_55 VGND VGND VPWR VPWR sky130_fd_sc_hd__fill_1
XFILLER_31_33 VGND VGND VPWR VPWR sky130_fd_sc_hd__decap_3
Xoutput88 _105_/X VGND VGND VPWR VPWR chany_bottom_out[14] sky130_fd_sc_hd__buf_2
XFILLER_0_221 VGND VGND VPWR VPWR sky130_fd_sc_hd__fill_2
Xoutput99 _097_/X VGND VGND VPWR VPWR chany_bottom_out[6] sky130_fd_sc_hd__buf_2
Xoutput77 _075_/X VGND VGND VPWR VPWR chanx_left_out[4] sky130_fd_sc_hd__buf_2
Xoutput66 _083_/X VGND VGND VPWR VPWR chanx_left_out[12] sky130_fd_sc_hd__buf_2
XANTENNA_input23_A chanx_left_in[1] VGND VGND VPWR VPWR sky130_fd_sc_hd__diode_2
XFILLER_16_100 VGND VGND VPWR VPWR sky130_fd_sc_hd__decap_4
XFILLER_31_169 VGND VPWR VPWR VGND sky130_ef_sc_hd__decap_12
XFILLER_31_125 VGND VPWR VPWR VGND sky130_ef_sc_hd__decap_12
XTAP_103 VGND VPWR sky130_fd_sc_hd__tapvpwrvgnd_1
XANTENNA_output91_A _108_/X VGND VGND VPWR VPWR sky130_fd_sc_hd__diode_2
XTAP_114 VGND VPWR sky130_fd_sc_hd__tapvpwrvgnd_1
XTAP_125 VGND VPWR sky130_fd_sc_hd__tapvpwrvgnd_1
XTAP_136 VGND VPWR sky130_fd_sc_hd__tapvpwrvgnd_1
XTAP_147 VGND VPWR sky130_fd_sc_hd__tapvpwrvgnd_1
XTAP_158 VGND VPWR sky130_fd_sc_hd__tapvpwrvgnd_1
XTAP_169 VGND VPWR sky130_fd_sc_hd__tapvpwrvgnd_1
XFILLER_22_103 VGND VGND VPWR VPWR sky130_fd_sc_hd__decap_6
XFILLER_22_136 VGND VGND VPWR VPWR sky130_fd_sc_hd__decap_4
Xmem_bottom_track_3.sky130_fd_sc_hd__dfxtp_1_1_ prog_clk_0_FTB00/X mux_bottom_track_3.mux_l1_in_1_/S
+ VGND VGND VPWR VPWR mux_bottom_track_3.mux_l2_in_1_/S sky130_fd_sc_hd__dfxtp_1
XFILLER_26_33 VGND VGND VPWR VPWR sky130_fd_sc_hd__fill_1
XFILLER_9_129 VGND VGND VPWR VPWR sky130_fd_sc_hd__fill_2
XFILLER_13_158 VGND VGND VPWR VPWR sky130_fd_sc_hd__fill_2
XFILLER_26_99 VGND VGND VPWR VPWR sky130_fd_sc_hd__fill_2
XFILLER_3_37 VGND VGND VPWR VPWR sky130_fd_sc_hd__fill_2
XFILLER_12_191 VGND VGND VPWR VPWR sky130_fd_sc_hd__decap_4
XFILLER_27_217 VGND VGND VPWR VPWR sky130_fd_sc_hd__decap_6
XFILLER_10_106 VGND VGND VPWR VPWR sky130_fd_sc_hd__decap_4
XFILLER_12_24 VGND VGND VPWR VPWR sky130_fd_sc_hd__decap_4
XFILLER_33_209 VGND VPWR VPWR VGND sky130_ef_sc_hd__decap_12
Xmux_left_track_15.mux_l2_in_0_ mux_left_track_15.mux_l2_in_0_/A0 mux_left_track_15.mux_l1_in_0_/X
+ mux_left_track_15.mux_l2_in_0_/S VGND VGND VPWR VPWR mux_left_track_15.mux_l2_in_0_/X
+ sky130_fd_sc_hd__mux2_1
XFILLER_18_217 VGND VGND VPWR VPWR sky130_fd_sc_hd__fill_2
XFILLER_5_110 VGND VGND VPWR VPWR sky130_fd_sc_hd__fill_2
XFILLER_24_209 VGND VPWR VPWR VGND sky130_ef_sc_hd__decap_12
XFILLER_23_12 VGND VGND VPWR VPWR sky130_fd_sc_hd__fill_2
XFILLER_23_23 VGND VGND VPWR VPWR sky130_fd_sc_hd__fill_1
XFILLER_23_89 VGND VPWR VPWR VGND sky130_ef_sc_hd__decap_12
XFILLER_2_157 VGND VGND VPWR VPWR sky130_fd_sc_hd__decap_3
Xprog_clk_0_FTB00 prog_clk_0_S_in VGND VGND VPWR VPWR prog_clk_0_FTB00/X sky130_fd_sc_hd__buf_8
XFILLER_0_49 VGND VGND VPWR VPWR sky130_fd_sc_hd__fill_2
Xmux_left_track_7.mux_l2_in_0_ mux_left_track_7.mux_l1_in_1_/X mux_left_track_7.mux_l1_in_0_/X
+ mux_left_track_7.mux_l2_in_1_/S VGND VGND VPWR VPWR mux_left_track_7.mux_l2_in_0_/X
+ sky130_fd_sc_hd__mux2_1
XANTENNA_input53_A left_bottom_grid_pin_35_ VGND VGND VPWR VPWR sky130_fd_sc_hd__diode_2
Xmux_bottom_track_21.mux_l2_in_0__133 VGND VGND VPWR VPWR mux_bottom_track_21.mux_l2_in_0_/A0
+ mux_bottom_track_21.mux_l2_in_0__133/LO sky130_fd_sc_hd__conb_1
XFILLER_1_92 VGND VGND VPWR VPWR sky130_fd_sc_hd__fill_2
XANTENNA_mem_left_track_25.sky130_fd_sc_hd__dfxtp_1_0__CLK prog_clk_0_FTB00/X VGND
+ VGND VPWR VPWR sky130_fd_sc_hd__diode_2
XFILLER_4_219 VGND VGND VPWR VPWR sky130_fd_sc_hd__decap_4
XFILLER_20_68 VGND VGND VPWR VPWR sky130_fd_sc_hd__decap_4
XFILLER_28_153 VGND VPWR VPWR VGND sky130_ef_sc_hd__decap_12
XFILLER_28_197 VGND VPWR VPWR VGND sky130_ef_sc_hd__decap_12
XFILLER_13_6 VGND VGND VPWR VPWR sky130_fd_sc_hd__fill_2
XFILLER_19_153 VGND VPWR VPWR VGND sky130_ef_sc_hd__decap_12
Xmux_left_track_7.mux_l1_in_1_ input56/X input54/X mux_left_track_7.mux_l1_in_1_/S
+ VGND VGND VPWR VPWR mux_left_track_7.mux_l1_in_1_/X sky130_fd_sc_hd__mux2_1
XANTENNA_mem_left_track_39.sky130_fd_sc_hd__dfxtp_1_1__CLK prog_clk_0_FTB00/X VGND
+ VGND VPWR VPWR sky130_fd_sc_hd__diode_2
XFILLER_15_24 VGND VGND VPWR VPWR sky130_fd_sc_hd__fill_2
XFILLER_15_35 VGND VGND VPWR VPWR sky130_fd_sc_hd__decap_4
XFILLER_25_167 VGND VGND VPWR VPWR sky130_fd_sc_hd__fill_1
Xoutput89 _106_/X VGND VGND VPWR VPWR chany_bottom_out[15] sky130_fd_sc_hd__buf_2
Xoutput78 _076_/X VGND VGND VPWR VPWR chanx_left_out[5] sky130_fd_sc_hd__buf_2
Xoutput67 _084_/X VGND VGND VPWR VPWR chanx_left_out[13] sky130_fd_sc_hd__buf_2
XANTENNA_input16_A chanx_left_in[13] VGND VGND VPWR VPWR sky130_fd_sc_hd__diode_2
XFILLER_31_137 VGND VPWR VPWR VGND sky130_ef_sc_hd__decap_12
XTAP_104 VGND VPWR sky130_fd_sc_hd__tapvpwrvgnd_1
XTAP_115 VGND VPWR sky130_fd_sc_hd__tapvpwrvgnd_1
XTAP_126 VGND VPWR sky130_fd_sc_hd__tapvpwrvgnd_1
XTAP_137 VGND VPWR sky130_fd_sc_hd__tapvpwrvgnd_1
XTAP_148 VGND VPWR sky130_fd_sc_hd__tapvpwrvgnd_1
XANTENNA_mem_left_track_17.sky130_fd_sc_hd__dfxtp_1_1__CLK prog_clk_0_FTB00/X VGND
+ VGND VPWR VPWR sky130_fd_sc_hd__diode_2
XTAP_159 VGND VPWR sky130_fd_sc_hd__tapvpwrvgnd_1
Xmem_bottom_track_3.sky130_fd_sc_hd__dfxtp_1_0_ prog_clk_0_FTB00/X mux_bottom_track_1.mux_l3_in_0_/S
+ VGND VGND VPWR VPWR mux_bottom_track_3.mux_l1_in_1_/S sky130_fd_sc_hd__dfxtp_1
XANTENNA_input8_A bottom_left_grid_pin_48_ VGND VGND VPWR VPWR sky130_fd_sc_hd__diode_2
XANTENNA_mux_left_track_1.mux_l1_in_1__A0 input55/X VGND VGND VPWR VPWR sky130_fd_sc_hd__diode_2
XFILLER_26_67 VGND VGND VPWR VPWR sky130_fd_sc_hd__fill_2
XFILLER_21_181 VGND VPWR VPWR VGND sky130_ef_sc_hd__decap_12
XFILLER_3_27 VGND VGND VPWR VPWR sky130_fd_sc_hd__fill_2
XFILLER_8_141 VGND VGND VPWR VPWR sky130_fd_sc_hd__fill_2
XFILLER_8_163 VGND VGND VPWR VPWR sky130_fd_sc_hd__fill_2
XFILLER_12_181 VGND VGND VPWR VPWR sky130_fd_sc_hd__decap_4
XFILLER_5_133 VGND VGND VPWR VPWR sky130_fd_sc_hd__fill_2
XFILLER_5_166 VGND VGND VPWR VPWR sky130_fd_sc_hd__fill_2
XFILLER_32_221 VGND VGND VPWR VPWR sky130_fd_sc_hd__fill_2
XFILLER_4_81 VGND VGND VPWR VPWR sky130_fd_sc_hd__decap_3
Xmem_bottom_track_9.sky130_fd_sc_hd__dfxtp_1_1_ prog_clk_0_FTB00/X mux_bottom_track_9.mux_l1_in_0_/S
+ VGND VGND VPWR VPWR mux_bottom_track_9.mux_l2_in_0_/S sky130_fd_sc_hd__dfxtp_1
XFILLER_0_39 VGND VGND VPWR VPWR sky130_fd_sc_hd__fill_2
XFILLER_9_26 VGND VGND VPWR VPWR sky130_fd_sc_hd__fill_2
XFILLER_9_37 VGND VGND VPWR VPWR sky130_fd_sc_hd__fill_2
XFILLER_9_48 VGND VGND VPWR VPWR sky130_fd_sc_hd__fill_2
XFILLER_9_59 VGND VGND VPWR VPWR sky130_fd_sc_hd__fill_2
XFILLER_14_221 VGND VGND VPWR VPWR sky130_fd_sc_hd__fill_2
XANTENNA_mem_bottom_track_7.sky130_fd_sc_hd__dfxtp_1_1__CLK prog_clk_0_FTB00/X VGND
+ VGND VPWR VPWR sky130_fd_sc_hd__diode_2
Xmux_left_track_15.mux_l1_in_0_ input54/X input48/X mux_left_track_15.mux_l1_in_0_/S
+ VGND VGND VPWR VPWR mux_left_track_15.mux_l1_in_0_/X sky130_fd_sc_hd__mux2_1
X_110_ _110_/A VGND VGND VPWR VPWR _110_/X sky130_fd_sc_hd__clkbuf_1
XANTENNA_input46_A chany_bottom_in[4] VGND VGND VPWR VPWR sky130_fd_sc_hd__diode_2
Xmux_left_track_27.mux_l2_in_0_ mux_left_track_27.mux_l2_in_0_/A0 mux_left_track_27.mux_l1_in_0_/X
+ mux_left_track_27.mux_l2_in_0_/S VGND VGND VPWR VPWR mux_left_track_27.mux_l2_in_0_/X
+ sky130_fd_sc_hd__mux2_1
XFILLER_1_82 VGND VGND VPWR VPWR sky130_fd_sc_hd__fill_2
XFILLER_28_121 VGND VPWR VPWR VGND sky130_ef_sc_hd__decap_12
XFILLER_28_165 VGND VPWR VPWR VGND sky130_ef_sc_hd__decap_12
XFILLER_6_27 VGND VGND VPWR VPWR sky130_fd_sc_hd__fill_1
XFILLER_10_80 VGND VGND VPWR VPWR sky130_fd_sc_hd__decap_4
XFILLER_19_165 VGND VGND VPWR VPWR sky130_fd_sc_hd__decap_3
Xmux_bottom_track_11.sky130_fd_sc_hd__buf_4_0_ mux_bottom_track_11.mux_l2_in_0_/X
+ VGND VGND VPWR VPWR _096_/A sky130_fd_sc_hd__clkbuf_1
Xmux_left_track_7.mux_l1_in_0_ input52/X input44/X mux_left_track_7.mux_l1_in_1_/S
+ VGND VGND VPWR VPWR mux_left_track_7.mux_l1_in_0_/X sky130_fd_sc_hd__mux2_1
XFILLER_25_113 VGND VPWR VPWR VGND sky130_ef_sc_hd__decap_12
XFILLER_31_13 VGND VPWR VPWR VGND sky130_ef_sc_hd__decap_12
XFILLER_31_57 VGND VPWR VPWR VGND sky130_ef_sc_hd__decap_12
Xoutput68 _085_/X VGND VGND VPWR VPWR chanx_left_out[14] sky130_fd_sc_hd__buf_2
Xoutput79 _077_/X VGND VGND VPWR VPWR chanx_left_out[6] sky130_fd_sc_hd__buf_2
XFILLER_31_149 VGND VPWR VPWR VGND sky130_ef_sc_hd__decap_12
XFILLER_16_179 VGND VGND VPWR VPWR sky130_fd_sc_hd__fill_2
XTAP_105 VGND VPWR sky130_fd_sc_hd__tapvpwrvgnd_1
XTAP_116 VGND VPWR sky130_fd_sc_hd__tapvpwrvgnd_1
XTAP_127 VGND VPWR sky130_fd_sc_hd__tapvpwrvgnd_1
XTAP_138 VGND VPWR sky130_fd_sc_hd__tapvpwrvgnd_1
XTAP_149 VGND VPWR sky130_fd_sc_hd__tapvpwrvgnd_1
XFILLER_7_70 VGND VGND VPWR VPWR sky130_fd_sc_hd__decap_4
XANTENNA_mem_bottom_track_3.sky130_fd_sc_hd__dfxtp_1_1__D mux_bottom_track_3.mux_l1_in_1_/S
+ VGND VGND VPWR VPWR sky130_fd_sc_hd__diode_2
XFILLER_7_92 VGND VGND VPWR VPWR sky130_fd_sc_hd__fill_2
XANTENNA_mux_left_track_1.mux_l1_in_1__A1 input53/X VGND VGND VPWR VPWR sky130_fd_sc_hd__diode_2
XFILLER_9_109 VGND VGND VPWR VPWR sky130_fd_sc_hd__decap_3
XFILLER_21_193 VGND VPWR VPWR VGND sky130_ef_sc_hd__decap_12
XFILLER_8_186 VGND VGND VPWR VPWR sky130_fd_sc_hd__fill_2
Xmem_bottom_track_11.sky130_fd_sc_hd__dfxtp_1_1_ prog_clk_0_FTB00/X mux_bottom_track_11.mux_l1_in_0_/S
+ VGND VGND VPWR VPWR mux_bottom_track_11.mux_l2_in_0_/S sky130_fd_sc_hd__dfxtp_1
XFILLER_12_48 VGND VGND VPWR VPWR sky130_fd_sc_hd__fill_2
XFILLER_5_189 VGND VGND VPWR VPWR sky130_fd_sc_hd__fill_2
XFILLER_5_145 VGND VGND VPWR VPWR sky130_fd_sc_hd__fill_1
Xmem_left_track_21.sky130_fd_sc_hd__dfxtp_1_1_ prog_clk_0_FTB00/X mux_left_track_21.mux_l1_in_0_/S
+ VGND VGND VPWR VPWR mux_left_track_21.mux_l2_in_0_/S sky130_fd_sc_hd__dfxtp_1
Xmem_bottom_track_9.sky130_fd_sc_hd__dfxtp_1_0_ prog_clk_0_FTB00/X mux_bottom_track_7.mux_l3_in_0_/S
+ VGND VGND VPWR VPWR mux_bottom_track_9.mux_l1_in_0_/S sky130_fd_sc_hd__dfxtp_1
XFILLER_2_126 VGND VGND VPWR VPWR sky130_fd_sc_hd__fill_2
XFILLER_9_16 VGND VGND VPWR VPWR sky130_fd_sc_hd__fill_2
Xmux_left_track_27.mux_l2_in_0__116 VGND VGND VPWR VPWR mux_left_track_27.mux_l2_in_0_/A0
+ mux_left_track_27.mux_l2_in_0__116/LO sky130_fd_sc_hd__conb_1
XFILLER_18_25 VGND VGND VPWR VPWR sky130_fd_sc_hd__decap_3
XFILLER_11_203 VGND VGND VPWR VPWR sky130_fd_sc_hd__fill_2
XANTENNA_input39_A chany_bottom_in[16] VGND VGND VPWR VPWR sky130_fd_sc_hd__diode_2
XANTENNA_mem_left_track_7.sky130_fd_sc_hd__dfxtp_1_1__CLK prog_clk_0_FTB00/X VGND
+ VGND VPWR VPWR sky130_fd_sc_hd__diode_2
XANTENNA_mem_bottom_track_11.sky130_fd_sc_hd__dfxtp_1_0__CLK prog_clk_0_FTB00/X VGND
+ VGND VPWR VPWR sky130_fd_sc_hd__diode_2
XFILLER_20_26 VGND VGND VPWR VPWR sky130_fd_sc_hd__fill_2
XFILLER_20_48 VGND VGND VPWR VPWR sky130_fd_sc_hd__decap_3
XFILLER_29_57 VGND VPWR VPWR VGND sky130_ef_sc_hd__decap_12
XFILLER_28_133 VGND VGND VPWR VPWR sky130_fd_sc_hd__decap_6
XFILLER_28_177 VGND VPWR VPWR VGND sky130_ef_sc_hd__decap_12
XFILLER_3_221 VGND VGND VPWR VPWR sky130_fd_sc_hd__fill_2
XFILLER_19_111 VGND VGND VPWR VPWR sky130_fd_sc_hd__fill_1
Xmux_bottom_track_9.mux_l2_in_0__106 VGND VGND VPWR VPWR mux_bottom_track_9.mux_l2_in_0_/A0
+ mux_bottom_track_9.mux_l2_in_0__106/LO sky130_fd_sc_hd__conb_1
XFILLER_15_48 VGND VGND VPWR VPWR sky130_fd_sc_hd__fill_2
XFILLER_25_125 VGND VPWR VPWR VGND sky130_ef_sc_hd__decap_12
XFILLER_25_169 VGND VPWR VPWR VGND sky130_ef_sc_hd__decap_12
XFILLER_31_25 VGND VGND VPWR VPWR sky130_fd_sc_hd__decap_8
XANTENNA_mem_bottom_track_25.sky130_fd_sc_hd__dfxtp_1_1__CLK prog_clk_0_FTB00/X VGND
+ VGND VPWR VPWR sky130_fd_sc_hd__diode_2
Xmux_left_track_27.mux_l1_in_0_ input52/X input35/X mux_left_track_27.mux_l1_in_0_/S
+ VGND VGND VPWR VPWR mux_left_track_27.mux_l1_in_0_/X sky130_fd_sc_hd__mux2_1
XFILLER_15_59 VGND VGND VPWR VPWR sky130_fd_sc_hd__decap_4
XFILLER_31_69 VGND VGND VPWR VPWR sky130_fd_sc_hd__decap_8
Xoutput69 _086_/X VGND VGND VPWR VPWR chanx_left_out[15] sky130_fd_sc_hd__buf_2
XFILLER_31_106 VGND VGND VPWR VPWR sky130_fd_sc_hd__decap_6
Xmux_left_track_39.mux_l2_in_0_ mux_left_track_39.mux_l2_in_0_/A0 mux_left_track_39.mux_l1_in_0_/X
+ output62/A VGND VGND VPWR VPWR mux_left_track_39.mux_l2_in_0_/X sky130_fd_sc_hd__mux2_1
XTAP_106 VGND VPWR sky130_fd_sc_hd__tapvpwrvgnd_1
XTAP_117 VGND VPWR sky130_fd_sc_hd__tapvpwrvgnd_1
XTAP_128 VGND VPWR sky130_fd_sc_hd__tapvpwrvgnd_1
XTAP_139 VGND VPWR sky130_fd_sc_hd__tapvpwrvgnd_1
XPHY_0 VGND VGND VPWR VPWR sky130_fd_sc_hd__decap_3
Xmux_bottom_track_13.mux_l2_in_0_ mux_bottom_track_13.mux_l2_in_0_/A0 mux_bottom_track_13.mux_l1_in_0_/X
+ mux_bottom_track_13.mux_l2_in_0_/S VGND VGND VPWR VPWR mux_bottom_track_13.mux_l2_in_0_/X
+ sky130_fd_sc_hd__mux2_1
XANTENNA_input21_A chanx_left_in[18] VGND VGND VPWR VPWR sky130_fd_sc_hd__diode_2
Xmem_bottom_track_11.sky130_fd_sc_hd__dfxtp_1_0_ prog_clk_0_FTB00/X mux_bottom_track_9.mux_l2_in_0_/S
+ VGND VGND VPWR VPWR mux_bottom_track_11.mux_l1_in_0_/S sky130_fd_sc_hd__dfxtp_1
XFILLER_18_209 VGND VGND VPWR VPWR sky130_fd_sc_hd__fill_2
Xmem_left_track_21.sky130_fd_sc_hd__dfxtp_1_0_ prog_clk_0_FTB00/X mux_left_track_19.mux_l2_in_0_/S
+ VGND VGND VPWR VPWR mux_left_track_21.mux_l1_in_0_/S sky130_fd_sc_hd__dfxtp_1
Xmux_bottom_track_27.sky130_fd_sc_hd__buf_4_0_ mux_bottom_track_27.mux_l2_in_0_/X
+ VGND VGND VPWR VPWR _104_/A sky130_fd_sc_hd__clkbuf_1
XFILLER_23_59 VGND VGND VPWR VPWR sky130_fd_sc_hd__decap_4
XFILLER_2_138 VGND VGND VPWR VPWR sky130_fd_sc_hd__fill_2
XFILLER_13_81 VGND VGND VPWR VPWR sky130_fd_sc_hd__decap_8
Xmem_bottom_track_17.sky130_fd_sc_hd__dfxtp_1_1_ prog_clk_0_FTB00/X mux_bottom_track_17.mux_l1_in_0_/S
+ VGND VGND VPWR VPWR mux_bottom_track_17.mux_l2_in_0_/S sky130_fd_sc_hd__dfxtp_1
X_099_ _099_/A VGND VGND VPWR VPWR _099_/X sky130_fd_sc_hd__clkbuf_1
XFILLER_1_73 VGND VGND VPWR VPWR sky130_fd_sc_hd__fill_1
XANTENNA_mem_bottom_track_1.sky130_fd_sc_hd__dfxtp_1_2__CLK prog_clk_0_FTB00/X VGND
+ VGND VPWR VPWR sky130_fd_sc_hd__diode_2
Xmem_left_track_27.sky130_fd_sc_hd__dfxtp_1_1_ prog_clk_0_FTB00/X mux_left_track_27.mux_l1_in_0_/S
+ VGND VGND VPWR VPWR mux_left_track_27.mux_l2_in_0_/S sky130_fd_sc_hd__dfxtp_1
XFILLER_20_16 VGND VGND VPWR VPWR sky130_fd_sc_hd__fill_2
Xmux_bottom_track_5.mux_l2_in_1__104 VGND VGND VPWR VPWR mux_bottom_track_5.mux_l2_in_1_/A0
+ mux_bottom_track_5.mux_l2_in_1__104/LO sky130_fd_sc_hd__conb_1
XFILLER_29_69 VGND VPWR VPWR VGND sky130_ef_sc_hd__decap_12
XFILLER_28_189 VGND VGND VPWR VPWR sky130_fd_sc_hd__decap_6
XANTENNA_input51_A chany_bottom_in[9] VGND VGND VPWR VPWR sky130_fd_sc_hd__diode_2
XANTENNA_mem_left_track_29.sky130_fd_sc_hd__dfxtp_1_0__CLK prog_clk_0_FTB00/X VGND
+ VGND VPWR VPWR sky130_fd_sc_hd__diode_2
XFILLER_33_181 VGND VPWR VPWR VGND sky130_ef_sc_hd__decap_12