* NGSPICE file created from sb_2__2_.ext - technology: sky130A

* Black-box entry subcircuit for sky130_fd_sc_hd__decap_12 abstract view
.subckt sky130_fd_sc_hd__decap_12 VGND VNB VPB VPWR
.ends

* Black-box entry subcircuit for sky130_fd_sc_hd__fill_2 abstract view
.subckt sky130_fd_sc_hd__fill_2 VGND VNB VPB VPWR
.ends

* Black-box entry subcircuit for sky130_fd_sc_hd__fill_1 abstract view
.subckt sky130_fd_sc_hd__fill_1 VGND VNB VPB VPWR
.ends

* Black-box entry subcircuit for sky130_fd_sc_hd__mux2_1 abstract view
.subckt sky130_fd_sc_hd__mux2_1 A0 A1 S VGND VNB VPB VPWR X
.ends

* Black-box entry subcircuit for sky130_fd_sc_hd__dfxtp_1 abstract view
.subckt sky130_fd_sc_hd__dfxtp_1 CLK D VGND VNB VPB VPWR Q
.ends

* Black-box entry subcircuit for sky130_fd_sc_hd__decap_4 abstract view
.subckt sky130_fd_sc_hd__decap_4 VGND VNB VPB VPWR
.ends

* Black-box entry subcircuit for sky130_fd_sc_hd__decap_6 abstract view
.subckt sky130_fd_sc_hd__decap_6 VGND VNB VPB VPWR
.ends

* Black-box entry subcircuit for sky130_fd_sc_hd__conb_1 abstract view
.subckt sky130_fd_sc_hd__conb_1 VGND VNB VPB VPWR HI LO
.ends

* Black-box entry subcircuit for sky130_fd_sc_hd__decap_8 abstract view
.subckt sky130_fd_sc_hd__decap_8 VGND VNB VPB VPWR
.ends

* Black-box entry subcircuit for sky130_fd_sc_hd__diode_2 abstract view
.subckt sky130_fd_sc_hd__diode_2 DIODE VGND VNB VPB VPWR
.ends

* Black-box entry subcircuit for sky130_fd_sc_hd__decap_3 abstract view
.subckt sky130_fd_sc_hd__decap_3 VGND VNB VPB VPWR
.ends

* Black-box entry subcircuit for sky130_fd_sc_hd__clkbuf_2 abstract view
.subckt sky130_fd_sc_hd__clkbuf_2 A VGND VNB VPB VPWR X
.ends

* Black-box entry subcircuit for sky130_fd_sc_hd__clkbuf_1 abstract view
.subckt sky130_fd_sc_hd__clkbuf_1 A VGND VNB VPB VPWR X
.ends

* Black-box entry subcircuit for sky130_fd_sc_hd__tapvpwrvgnd_1 abstract view
.subckt sky130_fd_sc_hd__tapvpwrvgnd_1 VGND VPWR
.ends

* Black-box entry subcircuit for sky130_fd_sc_hd__buf_8 abstract view
.subckt sky130_fd_sc_hd__buf_8 A VGND VNB VPB VPWR X
.ends

* Black-box entry subcircuit for sky130_fd_sc_hd__buf_1 abstract view
.subckt sky130_fd_sc_hd__buf_1 A VGND VNB VPB VPWR X
.ends

* Black-box entry subcircuit for sky130_fd_sc_hd__clkbuf_16 abstract view
.subckt sky130_fd_sc_hd__clkbuf_16 A VGND VNB VPB VPWR X
.ends

.subckt sb_2__2_ SC_IN_BOT SC_OUT_BOT bottom_left_grid_pin_42_ bottom_left_grid_pin_43_
+ bottom_left_grid_pin_44_ bottom_left_grid_pin_45_ bottom_left_grid_pin_46_ bottom_left_grid_pin_47_
+ bottom_left_grid_pin_48_ bottom_left_grid_pin_49_ bottom_right_grid_pin_1_ ccff_head
+ ccff_tail chanx_left_in[0] chanx_left_in[10] chanx_left_in[11] chanx_left_in[12]
+ chanx_left_in[13] chanx_left_in[14] chanx_left_in[15] chanx_left_in[16] chanx_left_in[17]
+ chanx_left_in[18] chanx_left_in[19] chanx_left_in[1] chanx_left_in[2] chanx_left_in[3]
+ chanx_left_in[4] chanx_left_in[5] chanx_left_in[6] chanx_left_in[7] chanx_left_in[8]
+ chanx_left_in[9] chanx_left_out[0] chanx_left_out[10] chanx_left_out[11] chanx_left_out[12]
+ chanx_left_out[13] chanx_left_out[14] chanx_left_out[15] chanx_left_out[16] chanx_left_out[17]
+ chanx_left_out[18] chanx_left_out[19] chanx_left_out[1] chanx_left_out[2] chanx_left_out[3]
+ chanx_left_out[4] chanx_left_out[5] chanx_left_out[6] chanx_left_out[7] chanx_left_out[8]
+ chanx_left_out[9] chany_bottom_in[0] chany_bottom_in[10] chany_bottom_in[11] chany_bottom_in[12]
+ chany_bottom_in[13] chany_bottom_in[14] chany_bottom_in[15] chany_bottom_in[16]
+ chany_bottom_in[17] chany_bottom_in[18] chany_bottom_in[19] chany_bottom_in[1] chany_bottom_in[2]
+ chany_bottom_in[3] chany_bottom_in[4] chany_bottom_in[5] chany_bottom_in[6] chany_bottom_in[7]
+ chany_bottom_in[8] chany_bottom_in[9] chany_bottom_out[0] chany_bottom_out[10] chany_bottom_out[11]
+ chany_bottom_out[12] chany_bottom_out[13] chany_bottom_out[14] chany_bottom_out[15]
+ chany_bottom_out[16] chany_bottom_out[17] chany_bottom_out[18] chany_bottom_out[19]
+ chany_bottom_out[1] chany_bottom_out[2] chany_bottom_out[3] chany_bottom_out[4]
+ chany_bottom_out[5] chany_bottom_out[6] chany_bottom_out[7] chany_bottom_out[8]
+ chany_bottom_out[9] left_bottom_grid_pin_34_ left_bottom_grid_pin_35_ left_bottom_grid_pin_36_
+ left_bottom_grid_pin_37_ left_bottom_grid_pin_38_ left_bottom_grid_pin_39_ left_bottom_grid_pin_40_
+ left_bottom_grid_pin_41_ left_top_grid_pin_1_ prog_clk_0_S_in VPWR VGND
XFILLER_22_144 VGND VGND VPWR VPWR sky130_fd_sc_hd__decap_12
XFILLER_13_133 VGND VGND VPWR VPWR sky130_fd_sc_hd__fill_2
XFILLER_26_30 VGND VGND VPWR VPWR sky130_fd_sc_hd__fill_2
XFILLER_26_52 VGND VGND VPWR VPWR sky130_fd_sc_hd__fill_1
XFILLER_9_115 VGND VGND VPWR VPWR sky130_fd_sc_hd__fill_2
XFILLER_9_126 VGND VGND VPWR VPWR sky130_fd_sc_hd__fill_2
Xmux_bottom_track_3.mux_l1_in_1_ input8/X input6/X mux_bottom_track_3.mux_l1_in_1_/S
+ VGND VGND VPWR VPWR mux_bottom_track_3.mux_l1_in_1_/X sky130_fd_sc_hd__mux2_1
Xmem_left_track_17.sky130_fd_sc_hd__dfxtp_1_0_ clkbuf_3_2_0_mem_bottom_track_1.prog_clk/X
+ mux_left_track_15.mux_l2_in_0_/S VGND VGND VPWR VPWR mux_left_track_17.mux_l1_in_0_/S
+ sky130_fd_sc_hd__dfxtp_1
XFILLER_10_136 VGND VGND VPWR VPWR sky130_fd_sc_hd__fill_2
XFILLER_12_32 VGND VGND VPWR VPWR sky130_fd_sc_hd__decap_4
XFILLER_15_217 VGND VGND VPWR VPWR sky130_fd_sc_hd__decap_6
X_062_ VGND VGND VPWR VPWR _062_/HI _062_/LO sky130_fd_sc_hd__conb_1
XFILLER_23_64 VGND VGND VPWR VPWR sky130_fd_sc_hd__fill_2
XFILLER_23_75 VGND VGND VPWR VPWR sky130_fd_sc_hd__decap_8
XFILLER_2_198 VGND VGND VPWR VPWR sky130_fd_sc_hd__fill_2
XANTENNA_input55_A left_bottom_grid_pin_37_ VGND VGND VPWR VPWR sky130_fd_sc_hd__diode_2
XFILLER_0_46 VGND VGND VPWR VPWR sky130_fd_sc_hd__fill_1
XFILLER_9_33 VGND VGND VPWR VPWR sky130_fd_sc_hd__fill_2
X_045_ VGND VGND VPWR VPWR _045_/HI _045_/LO sky130_fd_sc_hd__conb_1
Xmux_bottom_track_17.mux_l1_in_0_ input31/X input5/X mux_bottom_track_17.mux_l1_in_0_/S
+ VGND VGND VPWR VPWR mux_bottom_track_17.mux_l1_in_0_/X sky130_fd_sc_hd__mux2_1
XFILLER_29_139 VGND VGND VPWR VPWR sky130_fd_sc_hd__decap_12
XFILLER_20_87 VGND VGND VPWR VPWR sky130_fd_sc_hd__decap_3
Xmux_bottom_track_29.mux_l2_in_0_ _068_/HI mux_bottom_track_29.mux_l1_in_0_/X mux_bottom_track_29.mux_l2_in_0_/S
+ VGND VGND VPWR VPWR mux_bottom_track_29.mux_l2_in_0_/X sky130_fd_sc_hd__mux2_1
XANTENNA_input18_A chanx_left_in[15] VGND VGND VPWR VPWR sky130_fd_sc_hd__diode_2
XFILLER_13_3 VGND VGND VPWR VPWR sky130_fd_sc_hd__fill_2
XFILLER_19_172 VGND VGND VPWR VPWR sky130_fd_sc_hd__decap_12
XFILLER_25_120 VGND VGND VPWR VPWR sky130_fd_sc_hd__decap_12
XFILLER_15_65 VGND VGND VPWR VPWR sky130_fd_sc_hd__decap_3
XFILLER_31_53 VGND VGND VPWR VPWR sky130_fd_sc_hd__decap_4
Xoutput75 _073_/X VGND VGND VPWR VPWR chanx_left_out[2] sky130_fd_sc_hd__clkbuf_2
Xoutput64 _081_/X VGND VGND VPWR VPWR chanx_left_out[10] sky130_fd_sc_hd__clkbuf_2
Xmux_bottom_track_3.sky130_fd_sc_hd__buf_4_0_ mux_bottom_track_3.mux_l3_in_0_/X VGND
+ VGND VPWR VPWR _092_/A sky130_fd_sc_hd__clkbuf_1
Xoutput86 _103_/X VGND VGND VPWR VPWR chany_bottom_out[12] sky130_fd_sc_hd__clkbuf_2
Xoutput97 _095_/X VGND VGND VPWR VPWR chany_bottom_out[4] sky130_fd_sc_hd__clkbuf_2
XPHY_170 VGND VPWR sky130_fd_sc_hd__tapvpwrvgnd_1
XPHY_192 VGND VPWR sky130_fd_sc_hd__tapvpwrvgnd_1
XPHY_181 VGND VPWR sky130_fd_sc_hd__tapvpwrvgnd_1
XFILLER_22_112 VGND VGND VPWR VPWR sky130_fd_sc_hd__decap_12
XFILLER_22_156 VGND VGND VPWR VPWR sky130_fd_sc_hd__decap_12
XFILLER_9_105 VGND VGND VPWR VPWR sky130_fd_sc_hd__decap_4
XFILLER_9_149 VGND VGND VPWR VPWR sky130_fd_sc_hd__fill_2
Xmux_bottom_track_3.mux_l1_in_0_ input4/X input2/X mux_bottom_track_3.mux_l1_in_1_/S
+ VGND VGND VPWR VPWR mux_bottom_track_3.mux_l1_in_0_/X sky130_fd_sc_hd__mux2_1
XFILLER_8_160 VGND VGND VPWR VPWR sky130_fd_sc_hd__decap_3
XANTENNA_mux_bottom_track_11.mux_l1_in_0__A1 input2/X VGND VGND VPWR VPWR sky130_fd_sc_hd__diode_2
Xclkbuf_1_0_0_mem_bottom_track_1.prog_clk clkbuf_0_mem_bottom_track_1.prog_clk/X VGND
+ VGND VPWR VPWR clkbuf_2_1_0_mem_bottom_track_1.prog_clk/A sky130_fd_sc_hd__clkbuf_1
X_061_ VGND VGND VPWR VPWR _061_/HI _061_/LO sky130_fd_sc_hd__conb_1
XFILLER_2_188 VGND VGND VPWR VPWR sky130_fd_sc_hd__fill_2
XFILLER_2_144 VGND VGND VPWR VPWR sky130_fd_sc_hd__fill_2
XANTENNA_input48_A chany_bottom_in[6] VGND VGND VPWR VPWR sky130_fd_sc_hd__diode_2
XFILLER_0_36 VGND VGND VPWR VPWR sky130_fd_sc_hd__fill_2
XFILLER_9_23 VGND VGND VPWR VPWR sky130_fd_sc_hd__fill_2
XFILLER_20_221 VGND VGND VPWR VPWR sky130_fd_sc_hd__fill_2
Xmux_left_track_9.sky130_fd_sc_hd__buf_4_0_ mux_left_track_9.mux_l2_in_0_/X VGND VGND
+ VPWR VPWR _075_/A sky130_fd_sc_hd__clkbuf_1
XFILLER_11_221 VGND VGND VPWR VPWR sky130_fd_sc_hd__fill_2
X_044_ VGND VGND VPWR VPWR _044_/HI _044_/LO sky130_fd_sc_hd__conb_1
Xmem_bottom_track_25.sky130_fd_sc_hd__dfxtp_1_1_ clkbuf_3_5_0_mem_bottom_track_1.prog_clk/X
+ mux_bottom_track_25.mux_l1_in_1_/S VGND VGND VPWR VPWR mux_bottom_track_25.mux_l2_in_0_/S
+ sky130_fd_sc_hd__dfxtp_1
Xmux_left_track_31.sky130_fd_sc_hd__buf_4_0_ mux_left_track_31.mux_l2_in_0_/X VGND
+ VGND VPWR VPWR _086_/A sky130_fd_sc_hd__clkbuf_1
XFILLER_29_20 VGND VGND VPWR VPWR sky130_fd_sc_hd__fill_2
XFILLER_6_46 VGND VGND VPWR VPWR sky130_fd_sc_hd__fill_2
XFILLER_19_151 VGND VGND VPWR VPWR sky130_fd_sc_hd__decap_12
XFILLER_19_184 VGND VGND VPWR VPWR sky130_fd_sc_hd__decap_12
Xmem_left_track_35.sky130_fd_sc_hd__dfxtp_1_1_ clkbuf_3_3_0_mem_bottom_track_1.prog_clk/X
+ mux_left_track_35.mux_l1_in_0_/S VGND VGND VPWR VPWR mux_left_track_35.mux_l2_in_0_/S
+ sky130_fd_sc_hd__dfxtp_1
XFILLER_15_22 VGND VGND VPWR VPWR sky130_fd_sc_hd__fill_2
XFILLER_25_132 VGND VGND VPWR VPWR sky130_fd_sc_hd__decap_12
XFILLER_15_77 VGND VGND VPWR VPWR sky130_fd_sc_hd__decap_4
Xoutput87 _104_/X VGND VGND VPWR VPWR chany_bottom_out[13] sky130_fd_sc_hd__clkbuf_2
Xoutput98 _096_/X VGND VGND VPWR VPWR chany_bottom_out[5] sky130_fd_sc_hd__clkbuf_2
Xoutput76 _074_/X VGND VGND VPWR VPWR chanx_left_out[3] sky130_fd_sc_hd__clkbuf_2
Xoutput65 _082_/X VGND VGND VPWR VPWR chanx_left_out[11] sky130_fd_sc_hd__clkbuf_2
XANTENNA_input30_A chanx_left_in[8] VGND VGND VPWR VPWR sky130_fd_sc_hd__diode_2
XPHY_193 VGND VPWR sky130_fd_sc_hd__tapvpwrvgnd_1
XPHY_160 VGND VPWR sky130_fd_sc_hd__tapvpwrvgnd_1
XPHY_171 VGND VPWR sky130_fd_sc_hd__tapvpwrvgnd_1
XPHY_182 VGND VPWR sky130_fd_sc_hd__tapvpwrvgnd_1
Xmux_left_track_25.sky130_fd_sc_hd__buf_4_0_ mux_left_track_25.mux_l2_in_0_/X VGND
+ VGND VPWR VPWR _083_/A sky130_fd_sc_hd__clkbuf_1
XFILLER_22_124 VGND VGND VPWR VPWR sky130_fd_sc_hd__decap_12
Xmem_bottom_track_3.sky130_fd_sc_hd__dfxtp_1_2_ clkbuf_3_1_0_mem_bottom_track_1.prog_clk/X
+ mux_bottom_track_3.mux_l2_in_1_/S VGND VGND VPWR VPWR mux_bottom_track_3.mux_l3_in_0_/S
+ sky130_fd_sc_hd__dfxtp_1
XFILLER_22_168 VGND VGND VPWR VPWR sky130_fd_sc_hd__decap_12
Xmux_bottom_track_29.mux_l1_in_0_ input18/X input3/X mux_bottom_track_29.mux_l1_in_0_/S
+ VGND VGND VPWR VPWR mux_bottom_track_29.mux_l1_in_0_/X sky130_fd_sc_hd__mux2_1
XFILLER_26_87 VGND VGND VPWR VPWR sky130_fd_sc_hd__fill_1
XFILLER_3_58 VGND VGND VPWR VPWR sky130_fd_sc_hd__fill_2
XFILLER_3_25 VGND VGND VPWR VPWR sky130_fd_sc_hd__fill_2
Xclkbuf_3_4_0_mem_bottom_track_1.prog_clk clkbuf_3_5_0_mem_bottom_track_1.prog_clk/A
+ VGND VGND VPWR VPWR clkbuf_3_4_0_mem_bottom_track_1.prog_clk/X sky130_fd_sc_hd__clkbuf_1
XFILLER_27_216 VGND VGND VPWR VPWR sky130_fd_sc_hd__fill_1
XFILLER_12_12 VGND VGND VPWR VPWR sky130_fd_sc_hd__fill_2
XFILLER_12_23 VGND VGND VPWR VPWR sky130_fd_sc_hd__fill_2
XFILLER_12_45 VGND VGND VPWR VPWR sky130_fd_sc_hd__fill_2
XFILLER_12_89 VGND VGND VPWR VPWR sky130_fd_sc_hd__decap_4
Xmux_left_track_19.sky130_fd_sc_hd__buf_4_0_ mux_left_track_19.mux_l2_in_0_/X VGND
+ VGND VPWR VPWR _080_/A sky130_fd_sc_hd__clkbuf_1
XFILLER_5_153 VGND VGND VPWR VPWR sky130_fd_sc_hd__decap_3
XFILLER_5_131 VGND VGND VPWR VPWR sky130_fd_sc_hd__fill_2
XFILLER_5_120 VGND VGND VPWR VPWR sky130_fd_sc_hd__fill_2
Xmux_left_track_7.mux_l3_in_0_ mux_left_track_7.mux_l2_in_1_/X mux_left_track_7.mux_l2_in_0_/X
+ mux_left_track_7.mux_l3_in_0_/S VGND VGND VPWR VPWR mux_left_track_7.mux_l3_in_0_/X
+ sky130_fd_sc_hd__mux2_1
XFILLER_23_33 VGND VGND VPWR VPWR sky130_fd_sc_hd__fill_2
XFILLER_23_55 VGND VGND VPWR VPWR sky130_fd_sc_hd__fill_2
XFILLER_2_123 VGND VGND VPWR VPWR sky130_fd_sc_hd__fill_2
XFILLER_2_112 VGND VGND VPWR VPWR sky130_fd_sc_hd__decap_3
X_060_ VGND VGND VPWR VPWR _060_/HI _060_/LO sky130_fd_sc_hd__conb_1
XFILLER_2_178 VGND VGND VPWR VPWR sky130_fd_sc_hd__fill_2
XFILLER_0_15 VGND VGND VPWR VPWR sky130_fd_sc_hd__fill_2
XFILLER_0_26 VGND VGND VPWR VPWR sky130_fd_sc_hd__decap_3
XFILLER_0_59 VGND VGND VPWR VPWR sky130_fd_sc_hd__fill_2
XFILLER_18_77 VGND VGND VPWR VPWR sky130_fd_sc_hd__fill_2
Xmux_left_track_7.mux_l2_in_1_ _056_/HI input58/X mux_left_track_7.mux_l2_in_1_/S
+ VGND VGND VPWR VPWR mux_left_track_7.mux_l2_in_1_/X sky130_fd_sc_hd__mux2_1
X_043_ VGND VGND VPWR VPWR _043_/HI _043_/LO sky130_fd_sc_hd__conb_1
XANTENNA_input60_A left_top_grid_pin_1_ VGND VGND VPWR VPWR sky130_fd_sc_hd__diode_2
XFILLER_22_9 VGND VGND VPWR VPWR sky130_fd_sc_hd__fill_2
Xmem_bottom_track_25.sky130_fd_sc_hd__dfxtp_1_0_ clkbuf_3_5_0_mem_bottom_track_1.prog_clk/X
+ mux_bottom_track_23.mux_l2_in_0_/S VGND VGND VPWR VPWR mux_bottom_track_25.mux_l1_in_1_/S
+ sky130_fd_sc_hd__dfxtp_1
XFILLER_1_80 VGND VGND VPWR VPWR sky130_fd_sc_hd__fill_2
XFILLER_20_56 VGND VGND VPWR VPWR sky130_fd_sc_hd__fill_2
XFILLER_6_69 VGND VGND VPWR VPWR sky130_fd_sc_hd__fill_2
XFILLER_19_163 VGND VGND VPWR VPWR sky130_fd_sc_hd__decap_8
XFILLER_19_196 VGND VGND VPWR VPWR sky130_fd_sc_hd__decap_12
Xmem_left_track_35.sky130_fd_sc_hd__dfxtp_1_0_ clkbuf_3_3_0_mem_bottom_track_1.prog_clk/X
+ mux_left_track_33.mux_l2_in_0_/S VGND VGND VPWR VPWR mux_left_track_35.mux_l1_in_0_/S
+ sky130_fd_sc_hd__dfxtp_1
XFILLER_15_56 VGND VGND VPWR VPWR sky130_fd_sc_hd__fill_1
XFILLER_25_100 VGND VGND VPWR VPWR sky130_fd_sc_hd__decap_12
XFILLER_25_144 VGND VGND VPWR VPWR sky130_fd_sc_hd__decap_12
XFILLER_0_221 VGND VGND VPWR VPWR sky130_fd_sc_hd__fill_2
Xoutput99 _097_/X VGND VGND VPWR VPWR chany_bottom_out[6] sky130_fd_sc_hd__clkbuf_2
Xoutput88 _105_/X VGND VGND VPWR VPWR chany_bottom_out[14] sky130_fd_sc_hd__clkbuf_2
Xoutput77 _075_/X VGND VGND VPWR VPWR chanx_left_out[4] sky130_fd_sc_hd__clkbuf_2
Xoutput66 _083_/X VGND VGND VPWR VPWR chanx_left_out[12] sky130_fd_sc_hd__clkbuf_2
XANTENNA_input23_A chanx_left_in[1] VGND VGND VPWR VPWR sky130_fd_sc_hd__diode_2
XFILLER_16_111 VGND VGND VPWR VPWR sky130_fd_sc_hd__decap_12
XFILLER_16_144 VGND VGND VPWR VPWR sky130_fd_sc_hd__decap_12
XFILLER_16_188 VGND VGND VPWR VPWR sky130_fd_sc_hd__decap_3
XPHY_150 VGND VPWR sky130_fd_sc_hd__tapvpwrvgnd_1
XPHY_161 VGND VPWR sky130_fd_sc_hd__tapvpwrvgnd_1
XPHY_172 VGND VPWR sky130_fd_sc_hd__tapvpwrvgnd_1
XPHY_183 VGND VPWR sky130_fd_sc_hd__tapvpwrvgnd_1
XFILLER_22_136 VGND VGND VPWR VPWR sky130_fd_sc_hd__decap_6
Xmem_bottom_track_3.sky130_fd_sc_hd__dfxtp_1_1_ clkbuf_3_0_0_mem_bottom_track_1.prog_clk/X
+ mux_bottom_track_3.mux_l1_in_1_/S VGND VGND VPWR VPWR mux_bottom_track_3.mux_l2_in_1_/S
+ sky130_fd_sc_hd__dfxtp_1
XFILLER_30_180 VGND VGND VPWR VPWR sky130_fd_sc_hd__decap_12
XFILLER_13_169 VGND VGND VPWR VPWR sky130_fd_sc_hd__fill_2
XFILLER_12_68 VGND VGND VPWR VPWR sky130_fd_sc_hd__fill_2
XFILLER_18_206 VGND VGND VPWR VPWR sky130_fd_sc_hd__decap_12
Xmux_left_track_15.mux_l2_in_0_ _041_/HI mux_left_track_15.mux_l1_in_0_/X mux_left_track_15.mux_l2_in_0_/S
+ VGND VGND VPWR VPWR mux_left_track_15.mux_l2_in_0_/X sky130_fd_sc_hd__mux2_1
XFILLER_5_165 VGND VGND VPWR VPWR sky130_fd_sc_hd__fill_2
XFILLER_5_143 VGND VGND VPWR VPWR sky130_fd_sc_hd__fill_2
XFILLER_23_220 VGND VGND VPWR VPWR sky130_fd_sc_hd__decap_3
XFILLER_2_168 VGND VGND VPWR VPWR sky130_fd_sc_hd__fill_2
XFILLER_2_102 VGND VGND VPWR VPWR sky130_fd_sc_hd__fill_2
Xprog_clk_0_FTB00 prog_clk_0_S_in VGND VGND VPWR VPWR prog_clk_0_FTB00/X sky130_fd_sc_hd__buf_8
XFILLER_9_58 VGND VGND VPWR VPWR sky130_fd_sc_hd__fill_2
XFILLER_9_69 VGND VGND VPWR VPWR sky130_fd_sc_hd__fill_2
XFILLER_29_3 VGND VGND VPWR VPWR sky130_fd_sc_hd__fill_2
XFILLER_20_201 VGND VGND VPWR VPWR sky130_fd_sc_hd__decap_12
XFILLER_11_201 VGND VGND VPWR VPWR sky130_fd_sc_hd__decap_12
XFILLER_18_89 VGND VGND VPWR VPWR sky130_fd_sc_hd__decap_6
Xmux_left_track_7.mux_l2_in_0_ mux_left_track_7.mux_l1_in_1_/X mux_left_track_7.mux_l1_in_0_/X
+ mux_left_track_7.mux_l2_in_1_/S VGND VGND VPWR VPWR mux_left_track_7.mux_l2_in_0_/X
+ sky130_fd_sc_hd__mux2_1
X_042_ VGND VGND VPWR VPWR _042_/HI _042_/LO sky130_fd_sc_hd__conb_1
XANTENNA_input53_A left_bottom_grid_pin_35_ VGND VGND VPWR VPWR sky130_fd_sc_hd__diode_2
XFILLER_20_24 VGND VGND VPWR VPWR sky130_fd_sc_hd__decap_4
XFILLER_20_35 VGND VGND VPWR VPWR sky130_fd_sc_hd__fill_2
XFILLER_20_79 VGND VGND VPWR VPWR sky130_fd_sc_hd__fill_2
XFILLER_29_55 VGND VGND VPWR VPWR sky130_fd_sc_hd__fill_2
Xmux_left_track_7.mux_l1_in_1_ input56/X input54/X mux_left_track_7.mux_l1_in_1_/S
+ VGND VGND VPWR VPWR mux_left_track_7.mux_l1_in_1_/X sky130_fd_sc_hd__mux2_1
XFILLER_25_112 VGND VGND VPWR VPWR sky130_fd_sc_hd__fill_2
XFILLER_25_156 VGND VGND VPWR VPWR sky130_fd_sc_hd__decap_12
Xoutput89 _106_/X VGND VGND VPWR VPWR chany_bottom_out[15] sky130_fd_sc_hd__clkbuf_2
Xoutput78 _076_/X VGND VGND VPWR VPWR chanx_left_out[5] sky130_fd_sc_hd__clkbuf_2
Xoutput67 _084_/X VGND VGND VPWR VPWR chanx_left_out[13] sky130_fd_sc_hd__clkbuf_2
XANTENNA_input16_A chanx_left_in[13] VGND VGND VPWR VPWR sky130_fd_sc_hd__diode_2
XFILLER_16_123 VGND VGND VPWR VPWR sky130_fd_sc_hd__decap_12
XFILLER_16_156 VGND VGND VPWR VPWR sky130_fd_sc_hd__decap_12
XFILLER_31_115 VGND VGND VPWR VPWR sky130_fd_sc_hd__decap_12
XPHY_140 VGND VPWR sky130_fd_sc_hd__tapvpwrvgnd_1
XPHY_151 VGND VPWR sky130_fd_sc_hd__tapvpwrvgnd_1
XPHY_162 VGND VPWR sky130_fd_sc_hd__tapvpwrvgnd_1
XPHY_173 VGND VPWR sky130_fd_sc_hd__tapvpwrvgnd_1
XPHY_184 VGND VPWR sky130_fd_sc_hd__tapvpwrvgnd_1
Xmem_bottom_track_3.sky130_fd_sc_hd__dfxtp_1_0_ clkbuf_3_0_0_mem_bottom_track_1.prog_clk/X
+ mux_bottom_track_1.mux_l3_in_0_/S VGND VGND VPWR VPWR mux_bottom_track_3.mux_l1_in_1_/S
+ sky130_fd_sc_hd__dfxtp_1
XFILLER_30_192 VGND VGND VPWR VPWR sky130_fd_sc_hd__decap_8
XANTENNA_input8_A bottom_left_grid_pin_48_ VGND VGND VPWR VPWR sky130_fd_sc_hd__diode_2
XANTENNA_mux_left_track_1.mux_l1_in_1__A0 input55/X VGND VGND VPWR VPWR sky130_fd_sc_hd__diode_2
XFILLER_13_115 VGND VGND VPWR VPWR sky130_fd_sc_hd__fill_2
XFILLER_13_137 VGND VGND VPWR VPWR sky130_fd_sc_hd__decap_12
XFILLER_10_118 VGND VGND VPWR VPWR sky130_fd_sc_hd__fill_2
XFILLER_18_218 VGND VGND VPWR VPWR sky130_fd_sc_hd__decap_4
XFILLER_32_221 VGND VGND VPWR VPWR sky130_fd_sc_hd__fill_2
XANTENNA_mux_bottom_track_7.mux_l1_in_0__A1 input2/X VGND VGND VPWR VPWR sky130_fd_sc_hd__diode_2
Xmem_bottom_track_9.sky130_fd_sc_hd__dfxtp_1_1_ clkbuf_3_6_0_mem_bottom_track_1.prog_clk/X
+ mux_bottom_track_9.mux_l1_in_0_/S VGND VGND VPWR VPWR mux_bottom_track_9.mux_l2_in_0_/S
+ sky130_fd_sc_hd__dfxtp_1
XFILLER_14_221 VGND VGND VPWR VPWR sky130_fd_sc_hd__fill_2
XFILLER_20_213 VGND VGND VPWR VPWR sky130_fd_sc_hd__decap_8
Xmux_left_track_15.mux_l1_in_0_ input54/X input48/X mux_left_track_15.mux_l1_in_0_/S
+ VGND VGND VPWR VPWR mux_left_track_15.mux_l1_in_0_/X sky130_fd_sc_hd__mux2_1
XFILLER_18_24 VGND VGND VPWR VPWR sky130_fd_sc_hd__decap_4
XFILLER_18_35 VGND VGND VPWR VPWR sky130_fd_sc_hd__fill_2
X_110_ _110_/A VGND VGND VPWR VPWR _110_/X sky130_fd_sc_hd__clkbuf_1
XFILLER_11_213 VGND VGND VPWR VPWR sky130_fd_sc_hd__decap_8
X_041_ VGND VGND VPWR VPWR _041_/HI _041_/LO sky130_fd_sc_hd__conb_1
XANTENNA_input46_A chany_bottom_in[4] VGND VGND VPWR VPWR sky130_fd_sc_hd__diode_2
Xmux_left_track_27.mux_l2_in_0_ _047_/HI mux_left_track_27.mux_l1_in_0_/X mux_left_track_27.mux_l2_in_0_/S
+ VGND VGND VPWR VPWR mux_left_track_27.mux_l2_in_0_/X sky130_fd_sc_hd__mux2_1
XFILLER_20_14 VGND VGND VPWR VPWR sky130_fd_sc_hd__fill_2
XFILLER_6_16 VGND VGND VPWR VPWR sky130_fd_sc_hd__fill_2
XFILLER_6_27 VGND VGND VPWR VPWR sky130_fd_sc_hd__fill_2
Xmux_bottom_track_11.sky130_fd_sc_hd__buf_4_0_ mux_bottom_track_11.mux_l2_in_0_/X
+ VGND VGND VPWR VPWR _096_/A sky130_fd_sc_hd__clkbuf_1
Xmux_left_track_7.mux_l1_in_0_ input52/X input44/X mux_left_track_7.mux_l1_in_1_/S
+ VGND VGND VPWR VPWR mux_left_track_7.mux_l1_in_0_/X sky130_fd_sc_hd__mux2_1
XFILLER_25_168 VGND VGND VPWR VPWR sky130_fd_sc_hd__decap_3
XFILLER_31_24 VGND VGND VPWR VPWR sky130_fd_sc_hd__fill_2
Xoutput79 _077_/X VGND VGND VPWR VPWR chanx_left_out[6] sky130_fd_sc_hd__clkbuf_2
Xoutput68 _085_/X VGND VGND VPWR VPWR chanx_left_out[14] sky130_fd_sc_hd__clkbuf_2
XFILLER_16_135 VGND VGND VPWR VPWR sky130_fd_sc_hd__decap_8
XFILLER_16_168 VGND VGND VPWR VPWR sky130_fd_sc_hd__decap_12
XPHY_130 VGND VPWR sky130_fd_sc_hd__tapvpwrvgnd_1
XPHY_141 VGND VPWR sky130_fd_sc_hd__tapvpwrvgnd_1
XPHY_152 VGND VPWR sky130_fd_sc_hd__tapvpwrvgnd_1
XFILLER_31_127 VGND VGND VPWR VPWR sky130_fd_sc_hd__decap_12
XPHY_163 VGND VPWR sky130_fd_sc_hd__tapvpwrvgnd_1
XPHY_174 VGND VPWR sky130_fd_sc_hd__tapvpwrvgnd_1
XPHY_185 VGND VPWR sky130_fd_sc_hd__tapvpwrvgnd_1
XFILLER_21_90 VGND VGND VPWR VPWR sky130_fd_sc_hd__fill_2
XFILLER_13_105 VGND VGND VPWR VPWR sky130_fd_sc_hd__fill_2
XFILLER_13_149 VGND VGND VPWR VPWR sky130_fd_sc_hd__decap_12
XFILLER_8_142 VGND VGND VPWR VPWR sky130_fd_sc_hd__fill_1
Xmem_bottom_track_11.sky130_fd_sc_hd__dfxtp_1_1_ clkbuf_3_5_0_mem_bottom_track_1.prog_clk/X
+ mux_bottom_track_11.mux_l1_in_0_/S VGND VGND VPWR VPWR mux_bottom_track_11.mux_l2_in_0_/S
+ sky130_fd_sc_hd__dfxtp_1
XFILLER_27_208 VGND VGND VPWR VPWR sky130_fd_sc_hd__decap_8
XFILLER_5_9 VGND VGND VPWR VPWR sky130_fd_sc_hd__decap_4
Xmem_left_track_21.sky130_fd_sc_hd__dfxtp_1_1_ clkbuf_3_2_0_mem_bottom_track_1.prog_clk/X
+ mux_left_track_21.mux_l1_in_0_/S VGND VGND VPWR VPWR mux_left_track_21.mux_l2_in_0_/S
+ sky130_fd_sc_hd__dfxtp_1
XFILLER_4_93 VGND VGND VPWR VPWR sky130_fd_sc_hd__fill_2
XFILLER_23_14 VGND VGND VPWR VPWR sky130_fd_sc_hd__decap_4
XFILLER_23_58 VGND VGND VPWR VPWR sky130_fd_sc_hd__decap_4
Xmem_bottom_track_9.sky130_fd_sc_hd__dfxtp_1_0_ clkbuf_3_4_0_mem_bottom_track_1.prog_clk/X
+ mux_bottom_track_7.mux_l3_in_0_/S VGND VGND VPWR VPWR mux_bottom_track_9.mux_l1_in_0_/S
+ sky130_fd_sc_hd__dfxtp_1
XFILLER_9_38 VGND VGND VPWR VPWR sky130_fd_sc_hd__fill_2
XFILLER_18_58 VGND VGND VPWR VPWR sky130_fd_sc_hd__decap_3
XFILLER_1_3 VGND VGND VPWR VPWR sky130_fd_sc_hd__fill_2
X_040_ VGND VGND VPWR VPWR _040_/HI _040_/LO sky130_fd_sc_hd__conb_1
XANTENNA_input39_A chany_bottom_in[16] VGND VGND VPWR VPWR sky130_fd_sc_hd__diode_2
XFILLER_28_144 VGND VGND VPWR VPWR sky130_fd_sc_hd__decap_12
XFILLER_10_81 VGND VGND VPWR VPWR sky130_fd_sc_hd__decap_4
XFILLER_20_9 VGND VGND VPWR VPWR sky130_fd_sc_hd__fill_2
XFILLER_19_90 VGND VGND VPWR VPWR sky130_fd_sc_hd__fill_2
XFILLER_15_48 VGND VGND VPWR VPWR sky130_fd_sc_hd__fill_2
Xmux_left_track_27.mux_l1_in_0_ input52/X input35/X mux_left_track_27.mux_l1_in_0_/S
+ VGND VGND VPWR VPWR mux_left_track_27.mux_l1_in_0_/X sky130_fd_sc_hd__mux2_1
XFILLER_31_14 VGND VGND VPWR VPWR sky130_fd_sc_hd__fill_2
XFILLER_31_58 VGND VGND VPWR VPWR sky130_fd_sc_hd__decap_12
Xoutput69 _086_/X VGND VGND VPWR VPWR chanx_left_out[15] sky130_fd_sc_hd__clkbuf_2
XPHY_120 VGND VPWR sky130_fd_sc_hd__tapvpwrvgnd_1
XPHY_131 VGND VPWR sky130_fd_sc_hd__tapvpwrvgnd_1
XPHY_142 VGND VPWR sky130_fd_sc_hd__tapvpwrvgnd_1
XPHY_153 VGND VPWR sky130_fd_sc_hd__tapvpwrvgnd_1
XFILLER_24_180 VGND VGND VPWR VPWR sky130_fd_sc_hd__decap_12
XPHY_164 VGND VPWR sky130_fd_sc_hd__tapvpwrvgnd_1
XPHY_175 VGND VPWR sky130_fd_sc_hd__tapvpwrvgnd_1
XFILLER_31_106 VGND VGND VPWR VPWR sky130_fd_sc_hd__decap_8
XFILLER_31_139 VGND VGND VPWR VPWR sky130_fd_sc_hd__decap_12
Xmux_left_track_39.mux_l2_in_0_ _054_/HI mux_left_track_39.mux_l1_in_0_/X output62/A
+ VGND VGND VPWR VPWR mux_left_track_39.mux_l2_in_0_/X sky130_fd_sc_hd__mux2_1
XPHY_186 VGND VPWR sky130_fd_sc_hd__tapvpwrvgnd_1
XPHY_0 VGND VGND VPWR VPWR sky130_fd_sc_hd__decap_3
XFILLER_7_60 VGND VGND VPWR VPWR sky130_fd_sc_hd__fill_2
XFILLER_26_69 VGND VGND VPWR VPWR sky130_fd_sc_hd__decap_8
XFILLER_21_172 VGND VGND VPWR VPWR sky130_fd_sc_hd__decap_12
Xmux_bottom_track_13.mux_l2_in_0_ _060_/HI mux_bottom_track_13.mux_l1_in_0_/X mux_bottom_track_13.mux_l2_in_0_/S
+ VGND VGND VPWR VPWR mux_bottom_track_13.mux_l2_in_0_/X sky130_fd_sc_hd__mux2_1
XANTENNA_input21_A chanx_left_in[18] VGND VGND VPWR VPWR sky130_fd_sc_hd__diode_2
Xmem_bottom_track_11.sky130_fd_sc_hd__dfxtp_1_0_ clkbuf_3_4_0_mem_bottom_track_1.prog_clk/X
+ mux_bottom_track_9.mux_l2_in_0_/S VGND VGND VPWR VPWR mux_bottom_track_11.mux_l1_in_0_/S
+ sky130_fd_sc_hd__dfxtp_1
XFILLER_12_27 VGND VGND VPWR VPWR sky130_fd_sc_hd__fill_2
XANTENNA_mux_left_track_15.mux_l1_in_0__A0 input54/X VGND VGND VPWR VPWR sky130_fd_sc_hd__diode_2
XFILLER_5_135 VGND VGND VPWR VPWR sky130_fd_sc_hd__fill_2
XFILLER_5_113 VGND VGND VPWR VPWR sky130_fd_sc_hd__fill_1
Xmem_left_track_21.sky130_fd_sc_hd__dfxtp_1_0_ clkbuf_3_2_0_mem_bottom_track_1.prog_clk/X
+ mux_left_track_19.mux_l2_in_0_/S VGND VGND VPWR VPWR mux_left_track_21.mux_l1_in_0_/S
+ sky130_fd_sc_hd__dfxtp_1
XFILLER_32_201 VGND VGND VPWR VPWR sky130_fd_sc_hd__decap_12
Xmux_bottom_track_27.sky130_fd_sc_hd__buf_4_0_ mux_bottom_track_27.mux_l2_in_0_/X
+ VGND VGND VPWR VPWR _104_/A sky130_fd_sc_hd__clkbuf_1
XFILLER_23_37 VGND VGND VPWR VPWR sky130_fd_sc_hd__fill_2
XFILLER_3_7 VGND VGND VPWR VPWR sky130_fd_sc_hd__fill_2
XFILLER_14_201 VGND VGND VPWR VPWR sky130_fd_sc_hd__decap_12
XFILLER_9_28 VGND VGND VPWR VPWR sky130_fd_sc_hd__fill_2
XFILLER_1_193 VGND VGND VPWR VPWR sky130_fd_sc_hd__decap_3
XANTENNA_mux_left_track_5.mux_l1_in_0__A0 input60/X VGND VGND VPWR VPWR sky130_fd_sc_hd__diode_2
Xmem_bottom_track_17.sky130_fd_sc_hd__dfxtp_1_1_ clkbuf_3_4_0_mem_bottom_track_1.prog_clk/X
+ mux_bottom_track_17.mux_l1_in_0_/S VGND VGND VPWR VPWR mux_bottom_track_17.mux_l2_in_0_/S
+ sky130_fd_sc_hd__dfxtp_1
X_099_ _099_/A VGND VGND VPWR VPWR _099_/X sky130_fd_sc_hd__clkbuf_1
XFILLER_27_3 VGND VGND VPWR VPWR sky130_fd_sc_hd__fill_2
Xmem_left_track_27.sky130_fd_sc_hd__dfxtp_1_1_ clkbuf_3_2_0_mem_bottom_track_1.prog_clk/X
+ mux_left_track_27.mux_l1_in_0_/S VGND VGND VPWR VPWR mux_left_track_27.mux_l2_in_0_/S
+ sky130_fd_sc_hd__dfxtp_1
XFILLER_28_156 VGND VGND VPWR VPWR sky130_fd_sc_hd__decap_12
XFILLER_29_25 VGND VGND VPWR VPWR sky130_fd_sc_hd__decap_12
XFILLER_29_58 VGND VGND VPWR VPWR sky130_fd_sc_hd__decap_12
Xclkbuf_3_3_0_mem_bottom_track_1.prog_clk clkbuf_3_3_0_mem_bottom_track_1.prog_clk/A
+ VGND VGND VPWR VPWR clkbuf_3_3_0_mem_bottom_track_1.prog_clk/X sky130_fd_sc_hd__clkbuf_1
XANTENNA_input51_A chany_bottom_in[9] VGND VGND VPWR VPWR sky130_fd_sc_hd__diode_2
XFILLER_10_60 VGND VGND VPWR VPWR sky130_fd_sc_hd__fill_2
XFILLER_19_101 VGND VGND VPWR VPWR sky130_fd_sc_hd__decap_12
XFILLER_33_170 VGND VGND VPWR VPWR sky130_fd_sc_hd__decap_4
XFILLER_15_27 VGND VGND VPWR VPWR sky130_fd_sc_hd__decap_4
XFILLER_25_115 VGND VGND VPWR VPWR sky130_fd_sc_hd__fill_2
XPHY_187 VGND VPWR sky130_fd_sc_hd__tapvpwrvgnd_1
XPHY_110 VGND VPWR sky130_fd_sc_hd__tapvpwrvgnd_1
XPHY_121 VGND VPWR sky130_fd_sc_hd__tapvpwrvgnd_1
XPHY_132 VGND VPWR sky130_fd_sc_hd__tapvpwrvgnd_1
XPHY_143 VGND VPWR sky130_fd_sc_hd__tapvpwrvgnd_1
XPHY_154 VGND VPWR sky130_fd_sc_hd__tapvpwrvgnd_1
XFILLER_24_192 VGND VGND VPWR VPWR sky130_fd_sc_hd__decap_8
XPHY_165 VGND VPWR sky130_fd_sc_hd__tapvpwrvgnd_1
XPHY_176 VGND VPWR sky130_fd_sc_hd__tapvpwrvgnd_1
XFILLER_11_6 VGND VGND VPWR VPWR sky130_fd_sc_hd__decap_3
XPHY_1 VGND VGND VPWR VPWR sky130_fd_sc_hd__decap_3
XANTENNA_mux_left_track_23.mux_l1_in_0__A0 input58/X VGND VGND VPWR VPWR sky130_fd_sc_hd__diode_2
XFILLER_26_48 VGND VGND VPWR VPWR sky130_fd_sc_hd__decap_4
XFILLER_21_151 VGND VGND VPWR VPWR sky130_fd_sc_hd__decap_12
XFILLER_21_184 VGND VGND VPWR VPWR sky130_fd_sc_hd__decap_12
XANTENNA_input14_A chanx_left_in[11] VGND VGND VPWR VPWR sky130_fd_sc_hd__diode_2
XFILLER_8_133 VGND VGND VPWR VPWR sky130_fd_sc_hd__fill_2
XFILLER_8_144 VGND VGND VPWR VPWR sky130_fd_sc_hd__fill_2
XFILLER_8_155 VGND VGND VPWR VPWR sky130_fd_sc_hd__fill_2
XFILLER_12_162 VGND VGND VPWR VPWR sky130_fd_sc_hd__decap_12
XFILLER_16_81 VGND VGND VPWR VPWR sky130_fd_sc_hd__decap_4
XFILLER_8_199 VGND VGND VPWR VPWR sky130_fd_sc_hd__fill_1
XANTENNA_input6_A bottom_left_grid_pin_46_ VGND VGND VPWR VPWR sky130_fd_sc_hd__diode_2
Xmux_left_track_39.mux_l1_in_0_ input58/X input41/X mux_left_track_39.mux_l1_in_0_/S
+ VGND VGND VPWR VPWR mux_left_track_39.mux_l1_in_0_/X sky130_fd_sc_hd__mux2_1
XFILLER_26_221 VGND VGND VPWR VPWR sky130_fd_sc_hd__fill_2
XFILLER_5_169 VGND VGND VPWR VPWR sky130_fd_sc_hd__fill_2
XFILLER_5_125 VGND VGND VPWR VPWR sky130_fd_sc_hd__decap_3
XFILLER_32_213 VGND VGND VPWR VPWR sky130_fd_sc_hd__decap_8
XFILLER_4_84 VGND VGND VPWR VPWR sky130_fd_sc_hd__fill_2
XFILLER_4_40 VGND VGND VPWR VPWR sky130_fd_sc_hd__decap_4
Xmux_bottom_track_13.mux_l1_in_0_ input29/X input3/X mux_bottom_track_13.mux_l1_in_0_/S
+ VGND VGND VPWR VPWR mux_bottom_track_13.mux_l1_in_0_/X sky130_fd_sc_hd__mux2_1
XFILLER_14_213 VGND VGND VPWR VPWR sky130_fd_sc_hd__decap_8
Xmux_bottom_track_25.mux_l2_in_0_ mux_bottom_track_25.mux_l1_in_1_/X mux_bottom_track_25.mux_l1_in_0_/X
+ mux_bottom_track_25.mux_l2_in_0_/S VGND VGND VPWR VPWR mux_bottom_track_25.mux_l2_in_0_/X
+ sky130_fd_sc_hd__mux2_1
XFILLER_13_60 VGND VGND VPWR VPWR sky130_fd_sc_hd__fill_2
XFILLER_1_183 VGND VGND VPWR VPWR sky130_fd_sc_hd__fill_2
XFILLER_1_150 VGND VGND VPWR VPWR sky130_fd_sc_hd__fill_2
XFILLER_1_161 VGND VGND VPWR VPWR sky130_fd_sc_hd__fill_2
XFILLER_1_172 VGND VGND VPWR VPWR sky130_fd_sc_hd__fill_2
Xmem_bottom_track_17.sky130_fd_sc_hd__dfxtp_1_0_ clkbuf_3_6_0_mem_bottom_track_1.prog_clk/X
+ mux_bottom_track_15.mux_l2_in_0_/S VGND VGND VPWR VPWR mux_bottom_track_17.mux_l1_in_0_/S
+ sky130_fd_sc_hd__dfxtp_1
X_098_ _098_/A VGND VGND VPWR VPWR _098_/X sky130_fd_sc_hd__clkbuf_1
Xmem_left_track_27.sky130_fd_sc_hd__dfxtp_1_0_ clkbuf_3_2_0_mem_bottom_track_1.prog_clk/X