* NGSPICE file created from sb_2__0_.ext - technology: sky130A

* Black-box entry subcircuit for sky130_fd_sc_hd__tapvpwrvgnd_1 abstract view
.subckt sky130_fd_sc_hd__tapvpwrvgnd_1 VGND VPWR
.ends

* Black-box entry subcircuit for sky130_ef_sc_hd__decap_12 abstract view
.subckt sky130_ef_sc_hd__decap_12 VGND VPWR VPB VNB
.ends

* Black-box entry subcircuit for sky130_fd_sc_hd__decap_4 abstract view
.subckt sky130_fd_sc_hd__decap_4 VGND VNB VPB VPWR
.ends

* Black-box entry subcircuit for sky130_fd_sc_hd__fill_1 abstract view
.subckt sky130_fd_sc_hd__fill_1 VGND VNB VPB VPWR
.ends

* Black-box entry subcircuit for sky130_fd_sc_hd__dfxtp_1 abstract view
.subckt sky130_fd_sc_hd__dfxtp_1 CLK D VGND VNB VPB VPWR Q
.ends

* Black-box entry subcircuit for sky130_fd_sc_hd__fill_2 abstract view
.subckt sky130_fd_sc_hd__fill_2 VGND VNB VPB VPWR
.ends

* Black-box entry subcircuit for sky130_fd_sc_hd__diode_2 abstract view
.subckt sky130_fd_sc_hd__diode_2 DIODE VGND VNB VPB VPWR
.ends

* Black-box entry subcircuit for sky130_fd_sc_hd__decap_3 abstract view
.subckt sky130_fd_sc_hd__decap_3 VGND VNB VPB VPWR
.ends

* Black-box entry subcircuit for sky130_fd_sc_hd__conb_1 abstract view
.subckt sky130_fd_sc_hd__conb_1 VGND VNB VPB VPWR HI LO
.ends

* Black-box entry subcircuit for sky130_fd_sc_hd__decap_6 abstract view
.subckt sky130_fd_sc_hd__decap_6 VGND VNB VPB VPWR
.ends

* Black-box entry subcircuit for sky130_fd_sc_hd__buf_4 abstract view
.subckt sky130_fd_sc_hd__buf_4 A VGND VNB VPB VPWR X
.ends

* Black-box entry subcircuit for sky130_fd_sc_hd__mux2_1 abstract view
.subckt sky130_fd_sc_hd__mux2_1 A0 A1 S VGND VNB VPB VPWR X
.ends

* Black-box entry subcircuit for sky130_fd_sc_hd__decap_8 abstract view
.subckt sky130_fd_sc_hd__decap_8 VGND VNB VPB VPWR
.ends

* Black-box entry subcircuit for sky130_fd_sc_hd__buf_8 abstract view
.subckt sky130_fd_sc_hd__buf_8 A VGND VNB VPB VPWR X
.ends

* Black-box entry subcircuit for sky130_fd_sc_hd__buf_2 abstract view
.subckt sky130_fd_sc_hd__buf_2 A VGND VNB VPB VPWR X
.ends

.subckt sb_2__0_ VGND VPWR ccff_head ccff_tail chanx_left_in[0] chanx_left_in[10]
+ chanx_left_in[11] chanx_left_in[12] chanx_left_in[13] chanx_left_in[14] chanx_left_in[15]
+ chanx_left_in[16] chanx_left_in[17] chanx_left_in[18] chanx_left_in[19] chanx_left_in[1]
+ chanx_left_in[2] chanx_left_in[3] chanx_left_in[4] chanx_left_in[5] chanx_left_in[6]
+ chanx_left_in[7] chanx_left_in[8] chanx_left_in[9] chanx_left_out[0] chanx_left_out[10]
+ chanx_left_out[11] chanx_left_out[12] chanx_left_out[13] chanx_left_out[14] chanx_left_out[15]
+ chanx_left_out[16] chanx_left_out[17] chanx_left_out[18] chanx_left_out[19] chanx_left_out[1]
+ chanx_left_out[2] chanx_left_out[3] chanx_left_out[4] chanx_left_out[5] chanx_left_out[6]
+ chanx_left_out[7] chanx_left_out[8] chanx_left_out[9] chany_top_in[0] chany_top_in[10]
+ chany_top_in[11] chany_top_in[12] chany_top_in[13] chany_top_in[14] chany_top_in[15]
+ chany_top_in[16] chany_top_in[17] chany_top_in[18] chany_top_in[19] chany_top_in[1]
+ chany_top_in[2] chany_top_in[3] chany_top_in[4] chany_top_in[5] chany_top_in[6]
+ chany_top_in[7] chany_top_in[8] chany_top_in[9] chany_top_out[0] chany_top_out[10]
+ chany_top_out[11] chany_top_out[12] chany_top_out[13] chany_top_out[14] chany_top_out[15]
+ chany_top_out[16] chany_top_out[17] chany_top_out[18] chany_top_out[19] chany_top_out[1]
+ chany_top_out[2] chany_top_out[3] chany_top_out[4] chany_top_out[5] chany_top_out[6]
+ chany_top_out[7] chany_top_out[8] chany_top_out[9] left_bottom_grid_pin_11_ left_bottom_grid_pin_13_
+ left_bottom_grid_pin_15_ left_bottom_grid_pin_17_ left_bottom_grid_pin_1_ left_bottom_grid_pin_3_
+ left_bottom_grid_pin_5_ left_bottom_grid_pin_7_ left_bottom_grid_pin_9_ prog_clk_0_N_in
+ top_left_grid_pin_42_ top_left_grid_pin_43_ top_left_grid_pin_44_ top_left_grid_pin_45_
+ top_left_grid_pin_46_ top_left_grid_pin_47_ top_left_grid_pin_48_ top_left_grid_pin_49_
+ top_right_grid_pin_1_
XTAP_188 VGND VPWR sky130_fd_sc_hd__tapvpwrvgnd_1
XTAP_177 VGND VPWR sky130_fd_sc_hd__tapvpwrvgnd_1
XFILLER_22_111 VGND VPWR VPWR VGND sky130_ef_sc_hd__decap_12
XFILLER_22_188 VGND VGND VPWR VPWR sky130_fd_sc_hd__decap_4
XFILLER_22_199 VGND VGND VPWR VPWR sky130_fd_sc_hd__decap_4
XFILLER_9_137 VGND VPWR VPWR VGND sky130_ef_sc_hd__decap_12
XFILLER_13_144 VGND VGND VPWR VPWR sky130_fd_sc_hd__fill_1
Xmem_left_track_17.sky130_fd_sc_hd__dfxtp_1_0_ prog_clk_0_FTB00/X mux_left_track_15.mux_l2_in_0_/S
+ VGND VGND VPWR VPWR mux_left_track_17.mux_l1_in_0_/S sky130_fd_sc_hd__dfxtp_1
XFILLER_27_203 VGND VGND VPWR VPWR sky130_fd_sc_hd__fill_2
XANTENNA_mux_left_track_35.mux_l1_in_0__A1 chany_top_in[3] VGND VGND VPWR VPWR sky130_fd_sc_hd__diode_2
XFILLER_18_203 VGND VGND VPWR VPWR sky130_fd_sc_hd__fill_2
XFILLER_5_151 VGND VPWR VPWR VGND sky130_ef_sc_hd__decap_12
XANTENNA_mem_left_track_9.sky130_fd_sc_hd__dfxtp_1_0__CLK prog_clk_0_FTB00/X VGND
+ VGND VPWR VPWR sky130_fd_sc_hd__diode_2
XFILLER_23_20 VGND VGND VPWR VPWR sky130_fd_sc_hd__decap_3
XANTENNA_mux_top_track_0.mux_l1_in_0__A0 top_left_grid_pin_44_ VGND VGND VPWR VPWR
+ sky130_fd_sc_hd__diode_2
X_062_ VGND VGND VPWR VPWR _062_/HI _062_/LO sky130_fd_sc_hd__conb_1
XFILLER_2_121 VGND VPWR VPWR VGND sky130_ef_sc_hd__decap_12
XFILLER_2_165 VGND VPWR VPWR VGND sky130_ef_sc_hd__decap_12
XANTENNA_mem_top_track_10.sky130_fd_sc_hd__dfxtp_1_1__CLK prog_clk_0_FTB00/X VGND
+ VGND VPWR VPWR sky130_fd_sc_hd__diode_2
XFILLER_0_57 VGND VPWR VPWR VGND sky130_ef_sc_hd__decap_12
XFILLER_9_88 VGND VGND VPWR VPWR sky130_fd_sc_hd__fill_2
XFILLER_9_77 VGND VGND VPWR VPWR sky130_fd_sc_hd__fill_2
XFILLER_20_220 VGND VGND VPWR VPWR sky130_fd_sc_hd__decap_3
XANTENNA_mem_left_track_21.sky130_fd_sc_hd__dfxtp_1_0__CLK prog_clk_0_FTB00/X VGND
+ VGND VPWR VPWR sky130_fd_sc_hd__diode_2
XFILLER_18_53 VGND VGND VPWR VPWR sky130_fd_sc_hd__fill_1
X_045_ VGND VGND VPWR VPWR _045_/HI _045_/LO sky130_fd_sc_hd__conb_1
XFILLER_15_6 VGND VGND VPWR VPWR sky130_fd_sc_hd__fill_2
XFILLER_22_7 VGND VGND VPWR VPWR sky130_fd_sc_hd__fill_1
XFILLER_20_87 VGND VGND VPWR VPWR sky130_fd_sc_hd__fill_2
XANTENNA_mem_left_track_35.sky130_fd_sc_hd__dfxtp_1_1__CLK prog_clk_0_FTB00/X VGND
+ VGND VPWR VPWR sky130_fd_sc_hd__diode_2
XFILLER_29_41 VGND VGND VPWR VPWR sky130_fd_sc_hd__fill_2
XFILLER_29_85 VGND VGND VPWR VPWR sky130_fd_sc_hd__decap_4
XFILLER_29_96 VGND VGND VPWR VPWR sky130_fd_sc_hd__decap_4
XFILLER_28_161 VGND VGND VPWR VPWR sky130_fd_sc_hd__fill_2
XFILLER_28_183 VGND VGND VPWR VPWR sky130_fd_sc_hd__fill_2
XFILLER_28_194 VGND VGND VPWR VPWR sky130_fd_sc_hd__fill_2
XFILLER_13_3 VGND VGND VPWR VPWR sky130_fd_sc_hd__decap_6
XFILLER_19_150 VGND VPWR VPWR VGND sky130_ef_sc_hd__decap_12
XANTENNA_mem_left_track_13.sky130_fd_sc_hd__dfxtp_1_1__CLK prog_clk_0_FTB00/X VGND
+ VGND VPWR VPWR sky130_fd_sc_hd__diode_2
XFILLER_15_32 VGND VGND VPWR VPWR sky130_fd_sc_hd__fill_2
XFILLER_15_54 VGND VGND VPWR VPWR sky130_fd_sc_hd__fill_2
XFILLER_31_31 VGND VGND VPWR VPWR sky130_fd_sc_hd__decap_6
XFILLER_31_167 VGND VGND VPWR VPWR sky130_fd_sc_hd__fill_1
XFILLER_16_120 VGND VGND VPWR VPWR sky130_fd_sc_hd__fill_2
XFILLER_16_175 VGND VGND VPWR VPWR sky130_fd_sc_hd__fill_2
XFILLER_31_189 VGND VGND VPWR VPWR sky130_fd_sc_hd__decap_4
XTAP_189 VGND VPWR sky130_fd_sc_hd__tapvpwrvgnd_1
XTAP_101 VGND VPWR sky130_fd_sc_hd__tapvpwrvgnd_1
XTAP_112 VGND VPWR sky130_fd_sc_hd__tapvpwrvgnd_1
XTAP_123 VGND VPWR sky130_fd_sc_hd__tapvpwrvgnd_1
XTAP_134 VGND VPWR sky130_fd_sc_hd__tapvpwrvgnd_1
XTAP_145 VGND VPWR sky130_fd_sc_hd__tapvpwrvgnd_1
XTAP_156 VGND VPWR sky130_fd_sc_hd__tapvpwrvgnd_1
XTAP_167 VGND VPWR sky130_fd_sc_hd__tapvpwrvgnd_1
XTAP_178 VGND VPWR sky130_fd_sc_hd__tapvpwrvgnd_1
XFILLER_22_123 VGND VPWR VPWR VGND sky130_ef_sc_hd__decap_12
XFILLER_26_31 VGND VGND VPWR VPWR sky130_fd_sc_hd__fill_2
XFILLER_26_42 VGND VGND VPWR VPWR sky130_fd_sc_hd__fill_2
XFILLER_9_149 VGND VPWR VPWR VGND sky130_ef_sc_hd__decap_12
XFILLER_3_57 VGND VPWR VPWR VGND sky130_ef_sc_hd__decap_12
XFILLER_12_66 VGND VGND VPWR VPWR sky130_fd_sc_hd__decap_4
XFILLER_12_77 VGND VGND VPWR VPWR sky130_fd_sc_hd__fill_2
XANTENNA_mem_left_track_27.sky130_fd_sc_hd__dfxtp_1_0__D mux_left_track_25.mux_l2_in_0_/S
+ VGND VGND VPWR VPWR sky130_fd_sc_hd__diode_2
XFILLER_33_207 VGND VGND VPWR VPWR sky130_fd_sc_hd__fill_2
XFILLER_5_163 VGND VGND VPWR VPWR sky130_fd_sc_hd__decap_4
XFILLER_23_32 VGND VGND VPWR VPWR sky130_fd_sc_hd__fill_2
XFILLER_23_43 VGND VGND VPWR VPWR sky130_fd_sc_hd__fill_2
XFILLER_23_54 VGND VGND VPWR VPWR sky130_fd_sc_hd__fill_2
XANTENNA_mux_top_track_0.mux_l1_in_0__A1 top_left_grid_pin_42_ VGND VGND VPWR VPWR
+ sky130_fd_sc_hd__diode_2
X_061_ VGND VGND VPWR VPWR _061_/HI _061_/LO sky130_fd_sc_hd__conb_1
XFILLER_23_98 VGND VGND VPWR VPWR sky130_fd_sc_hd__fill_2
XFILLER_2_133 VGND VGND VPWR VPWR sky130_fd_sc_hd__decap_6
XFILLER_2_177 VGND VPWR VPWR VGND sky130_ef_sc_hd__decap_12
XFILLER_0_69 VGND VPWR VPWR VGND sky130_ef_sc_hd__decap_12
Xmux_left_track_9.sky130_fd_sc_hd__buf_4_0_ mux_left_track_9.mux_l2_in_0_/X VGND VGND
+ VPWR VPWR _072_/A sky130_fd_sc_hd__buf_4
XANTENNA_mem_top_track_0.sky130_fd_sc_hd__dfxtp_1_2__CLK prog_clk_0_FTB00/X VGND VGND
+ VPWR VPWR sky130_fd_sc_hd__diode_2
XFILLER_11_221 VGND VGND VPWR VPWR sky130_fd_sc_hd__fill_2
X_044_ VGND VGND VPWR VPWR _044_/HI _044_/LO sky130_fd_sc_hd__conb_1
XANTENNA_mux_left_track_5.mux_l3_in_0__S mux_left_track_5.mux_l3_in_0_/S VGND VGND
+ VPWR VPWR sky130_fd_sc_hd__diode_2
XFILLER_20_11 VGND VGND VPWR VPWR sky130_fd_sc_hd__fill_2
XFILLER_20_66 VGND VGND VPWR VPWR sky130_fd_sc_hd__fill_2
Xmux_left_track_31.sky130_fd_sc_hd__buf_4_0_ mux_left_track_31.mux_l2_in_0_/X VGND
+ VGND VPWR VPWR _083_/A sky130_fd_sc_hd__buf_4
Xmux_top_track_10.mux_l2_in_0_ _044_/HI mux_top_track_10.mux_l1_in_0_/X mux_top_track_10.mux_l2_in_0_/S
+ VGND VGND VPWR VPWR mux_top_track_10.mux_l2_in_0_/X sky130_fd_sc_hd__mux2_1
XANTENNA_mem_top_track_0.sky130_fd_sc_hd__dfxtp_1_0__D ccff_head VGND VGND VPWR VPWR
+ sky130_fd_sc_hd__diode_2
XFILLER_19_162 VGND VGND VPWR VPWR sky130_fd_sc_hd__decap_6
Xmem_left_track_35.sky130_fd_sc_hd__dfxtp_1_1_ prog_clk_0_FTB00/X mux_left_track_35.mux_l1_in_0_/S
+ VGND VGND VPWR VPWR mux_left_track_35.mux_l2_in_0_/S sky130_fd_sc_hd__dfxtp_1
XFILLER_15_66 VGND VGND VPWR VPWR sky130_fd_sc_hd__fill_2
XFILLER_15_77 VGND VGND VPWR VPWR sky130_fd_sc_hd__decap_4
XFILLER_15_88 VGND VGND VPWR VPWR sky130_fd_sc_hd__fill_2
XFILLER_31_43 VGND VGND VPWR VPWR sky130_fd_sc_hd__decap_4
XFILLER_31_54 VGND VGND VPWR VPWR sky130_fd_sc_hd__fill_2
XFILLER_31_87 VGND VGND VPWR VPWR sky130_fd_sc_hd__fill_2
XFILLER_31_157 VGND VGND VPWR VPWR sky130_fd_sc_hd__fill_2
XFILLER_31_113 VGND VGND VPWR VPWR sky130_fd_sc_hd__decap_8
XTAP_102 VGND VPWR sky130_fd_sc_hd__tapvpwrvgnd_1
XTAP_113 VGND VPWR sky130_fd_sc_hd__tapvpwrvgnd_1
Xmux_left_track_25.sky130_fd_sc_hd__buf_4_0_ mux_left_track_25.mux_l2_in_0_/X VGND
+ VGND VPWR VPWR _080_/A sky130_fd_sc_hd__buf_4
XTAP_124 VGND VPWR sky130_fd_sc_hd__tapvpwrvgnd_1
XTAP_135 VGND VPWR sky130_fd_sc_hd__tapvpwrvgnd_1
XTAP_146 VGND VPWR sky130_fd_sc_hd__tapvpwrvgnd_1
XTAP_157 VGND VPWR sky130_fd_sc_hd__tapvpwrvgnd_1
XTAP_168 VGND VPWR sky130_fd_sc_hd__tapvpwrvgnd_1
XTAP_179 VGND VPWR sky130_fd_sc_hd__tapvpwrvgnd_1
XFILLER_22_135 VGND VGND VPWR VPWR sky130_fd_sc_hd__fill_1
XFILLER_30_190 VGND VGND VPWR VPWR sky130_fd_sc_hd__fill_2
XFILLER_13_179 VGND VGND VPWR VPWR sky130_fd_sc_hd__decap_6
XFILLER_26_87 VGND VGND VPWR VPWR sky130_fd_sc_hd__decap_4
XFILLER_26_98 VGND VGND VPWR VPWR sky130_fd_sc_hd__decap_4
XFILLER_3_69 VGND VPWR VPWR VGND sky130_ef_sc_hd__decap_12
XFILLER_10_116 VGND VGND VPWR VPWR sky130_fd_sc_hd__fill_1
XFILLER_10_105 VGND VGND VPWR VPWR sky130_fd_sc_hd__decap_4
XANTENNA_mem_left_track_7.sky130_fd_sc_hd__dfxtp_1_0__D mux_left_track_5.mux_l3_in_0_/S
+ VGND VGND VPWR VPWR sky130_fd_sc_hd__diode_2
Xmux_left_track_19.sky130_fd_sc_hd__buf_4_0_ mux_left_track_19.mux_l2_in_0_/X VGND
+ VGND VPWR VPWR _077_/A sky130_fd_sc_hd__buf_4
Xmux_left_track_7.mux_l3_in_0_ mux_left_track_7.mux_l2_in_1_/X mux_left_track_7.mux_l2_in_0_/X
+ mux_left_track_7.mux_l3_in_0_/S VGND VGND VPWR VPWR mux_left_track_7.mux_l3_in_0_/X
+ sky130_fd_sc_hd__mux2_1
Xmem_top_track_10.sky130_fd_sc_hd__dfxtp_1_1_ prog_clk_0_FTB00/X mux_top_track_10.mux_l1_in_0_/S
+ VGND VGND VPWR VPWR mux_top_track_10.mux_l2_in_0_/S sky130_fd_sc_hd__dfxtp_1
XFILLER_3_3 VGND VPWR VPWR VGND sky130_ef_sc_hd__decap_12
X_060_ VGND VGND VPWR VPWR _060_/HI _060_/LO sky130_fd_sc_hd__conb_1
XFILLER_0_15 VGND VPWR VPWR VGND sky130_ef_sc_hd__decap_12
XFILLER_2_189 VGND VGND VPWR VPWR sky130_fd_sc_hd__decap_6
XFILLER_9_57 VGND VGND VPWR VPWR sky130_fd_sc_hd__decap_3
XANTENNA_mem_left_track_3.sky130_fd_sc_hd__dfxtp_1_1__CLK prog_clk_0_FTB00/X VGND
+ VGND VPWR VPWR sky130_fd_sc_hd__diode_2
XFILLER_18_77 VGND VGND VPWR VPWR sky130_fd_sc_hd__fill_2
Xmux_left_track_7.mux_l2_in_1_ _041_/HI left_bottom_grid_pin_15_ mux_left_track_7.mux_l2_in_1_/S
+ VGND VGND VPWR VPWR mux_left_track_7.mux_l2_in_1_/X sky130_fd_sc_hd__mux2_1
X_043_ VGND VGND VPWR VPWR _043_/HI _043_/LO sky130_fd_sc_hd__conb_1
XFILLER_20_56 VGND VGND VPWR VPWR sky130_fd_sc_hd__fill_1
XFILLER_29_54 VGND VGND VPWR VPWR sky130_fd_sc_hd__fill_2
XFILLER_29_65 VGND VGND VPWR VPWR sky130_fd_sc_hd__fill_2
XFILLER_29_76 VGND VGND VPWR VPWR sky130_fd_sc_hd__fill_2
XFILLER_19_185 VGND VGND VPWR VPWR sky130_fd_sc_hd__fill_2
XFILLER_19_196 VGND VGND VPWR VPWR sky130_fd_sc_hd__fill_2
Xmem_left_track_35.sky130_fd_sc_hd__dfxtp_1_0_ prog_clk_0_FTB00/X mux_left_track_33.mux_l2_in_0_/S
+ VGND VGND VPWR VPWR mux_left_track_35.mux_l1_in_0_/S sky130_fd_sc_hd__dfxtp_1
XFILLER_15_12 VGND VGND VPWR VPWR sky130_fd_sc_hd__fill_2
XFILLER_25_100 VGND VGND VPWR VPWR sky130_fd_sc_hd__fill_2
XFILLER_25_122 VGND VGND VPWR VPWR sky130_fd_sc_hd__decap_8
XFILLER_25_155 VGND VGND VPWR VPWR sky130_fd_sc_hd__fill_2
XFILLER_31_99 VGND VGND VPWR VPWR sky130_fd_sc_hd__fill_2
XFILLER_0_221 VGND VGND VPWR VPWR sky130_fd_sc_hd__fill_2
XANTENNA_mem_left_track_37.sky130_fd_sc_hd__dfxtp_1_0__D mux_left_track_35.mux_l2_in_0_/S
+ VGND VGND VPWR VPWR sky130_fd_sc_hd__diode_2
XFILLER_16_199 VGND VGND VPWR VPWR sky130_fd_sc_hd__fill_2
XTAP_103 VGND VPWR sky130_fd_sc_hd__tapvpwrvgnd_1
XTAP_114 VGND VPWR sky130_fd_sc_hd__tapvpwrvgnd_1
XTAP_125 VGND VPWR sky130_fd_sc_hd__tapvpwrvgnd_1
XTAP_136 VGND VPWR sky130_fd_sc_hd__tapvpwrvgnd_1
XTAP_147 VGND VPWR sky130_fd_sc_hd__tapvpwrvgnd_1
XTAP_158 VGND VPWR sky130_fd_sc_hd__tapvpwrvgnd_1
XTAP_169 VGND VPWR sky130_fd_sc_hd__tapvpwrvgnd_1
Xmux_top_track_10.mux_l1_in_0_ chanx_left_in[15] top_left_grid_pin_43_ mux_top_track_10.mux_l1_in_0_/S
+ VGND VGND VPWR VPWR mux_top_track_10.mux_l1_in_0_/X sky130_fd_sc_hd__mux2_1
XANTENNA_mux_top_track_2.mux_l1_in_1__A0 top_left_grid_pin_49_ VGND VGND VPWR VPWR
+ sky130_fd_sc_hd__diode_2
XFILLER_13_136 VGND VGND VPWR VPWR sky130_fd_sc_hd__fill_2
Xmux_top_track_22.mux_l2_in_0_ _051_/HI mux_top_track_22.mux_l1_in_0_/X mux_top_track_22.mux_l2_in_0_/S
+ VGND VGND VPWR VPWR mux_top_track_22.mux_l2_in_0_/X sky130_fd_sc_hd__mux2_1
XFILLER_3_15 VGND VPWR VPWR VGND sky130_ef_sc_hd__decap_12
XFILLER_8_195 VGND VGND VPWR VPWR sky130_fd_sc_hd__fill_1
XFILLER_12_35 VGND VGND VPWR VPWR sky130_fd_sc_hd__fill_2
XFILLER_12_46 VGND VGND VPWR VPWR sky130_fd_sc_hd__fill_2
XFILLER_12_57 VGND VGND VPWR VPWR sky130_fd_sc_hd__fill_2
Xmux_left_track_15.mux_l2_in_0_ _060_/HI mux_left_track_15.mux_l1_in_0_/X mux_left_track_15.mux_l2_in_0_/S
+ VGND VGND VPWR VPWR mux_left_track_15.mux_l2_in_0_/X sky130_fd_sc_hd__mux2_1
XFILLER_5_110 VGND VGND VPWR VPWR sky130_fd_sc_hd__fill_2
XANTENNA_mem_top_track_22.sky130_fd_sc_hd__dfxtp_1_0__CLK prog_clk_0_FTB00/X VGND
+ VGND VPWR VPWR sky130_fd_sc_hd__diode_2
Xmem_top_track_10.sky130_fd_sc_hd__dfxtp_1_0_ prog_clk_0_FTB00/X mux_top_track_8.mux_l2_in_0_/S
+ VGND VGND VPWR VPWR mux_top_track_10.mux_l1_in_0_/S sky130_fd_sc_hd__dfxtp_1
XANTENNA_mux_top_track_6.mux_l2_in_0__S mux_top_track_6.mux_l2_in_1_/S VGND VGND VPWR
+ VPWR sky130_fd_sc_hd__diode_2
Xprog_clk_0_FTB00 prog_clk_0_N_in VGND VGND VPWR VPWR prog_clk_0_FTB00/X sky130_fd_sc_hd__buf_8
XFILLER_0_27 VGND VGND VPWR VPWR sky130_fd_sc_hd__fill_1
XFILLER_9_47 VGND VGND VPWR VPWR sky130_fd_sc_hd__fill_1
XFILLER_29_3 VGND VGND VPWR VPWR sky130_fd_sc_hd__decap_8
XFILLER_7_205 VGND VPWR VPWR VGND sky130_ef_sc_hd__decap_12
Xmux_left_track_7.mux_l2_in_0_ mux_left_track_7.mux_l1_in_1_/X mux_left_track_7.mux_l1_in_0_/X
+ mux_left_track_7.mux_l2_in_1_/S VGND VGND VPWR VPWR mux_left_track_7.mux_l2_in_0_/X
+ sky130_fd_sc_hd__mux2_1
X_042_ VGND VGND VPWR VPWR _042_/HI _042_/LO sky130_fd_sc_hd__conb_1
XANTENNA_mem_top_track_14.sky130_fd_sc_hd__dfxtp_1_1__CLK prog_clk_0_FTB00/X VGND
+ VGND VPWR VPWR sky130_fd_sc_hd__diode_2
XFILLER_1_81 VGND VPWR VPWR VGND sky130_ef_sc_hd__decap_12
XANTENNA_mem_left_track_25.sky130_fd_sc_hd__dfxtp_1_0__CLK prog_clk_0_FTB00/X VGND
+ VGND VPWR VPWR sky130_fd_sc_hd__diode_2
Xmux_top_track_0.mux_l3_in_0_ mux_top_track_0.mux_l2_in_1_/X mux_top_track_0.mux_l2_in_0_/X
+ mux_top_track_0.mux_l3_in_0_/S VGND VGND VPWR VPWR mux_top_track_0.mux_l3_in_0_/X
+ sky130_fd_sc_hd__mux2_1
XFILLER_29_11 VGND VGND VPWR VPWR sky130_fd_sc_hd__fill_2
XFILLER_6_15 VGND VPWR VPWR VGND sky130_ef_sc_hd__decap_12
Xmem_top_track_16.sky130_fd_sc_hd__dfxtp_1_1_ prog_clk_0_FTB00/X mux_top_track_16.mux_l1_in_0_/S
+ VGND VGND VPWR VPWR mux_top_track_16.mux_l2_in_0_/S sky130_fd_sc_hd__dfxtp_1
XFILLER_20_7 VGND VGND VPWR VPWR sky130_fd_sc_hd__fill_2
XANTENNA_mux_left_track_1.mux_l3_in_0__S mux_left_track_1.mux_l3_in_0_/S VGND VGND
+ VPWR VPWR sky130_fd_sc_hd__diode_2
Xmux_left_track_7.mux_l1_in_1_ left_bottom_grid_pin_11_ left_bottom_grid_pin_7_ mux_left_track_7.mux_l1_in_1_/S
+ VGND VGND VPWR VPWR mux_left_track_7.mux_l1_in_1_/X sky130_fd_sc_hd__mux2_1
XFILLER_15_46 VGND VGND VPWR VPWR sky130_fd_sc_hd__fill_2
XANTENNA_mem_left_track_39.sky130_fd_sc_hd__dfxtp_1_1__CLK prog_clk_0_FTB00/X VGND
+ VGND VPWR VPWR sky130_fd_sc_hd__diode_2
XFILLER_25_167 VGND VGND VPWR VPWR sky130_fd_sc_hd__fill_1
XFILLER_25_189 VGND VGND VPWR VPWR sky130_fd_sc_hd__fill_2
XFILLER_31_12 VGND VPWR VPWR VGND sky130_ef_sc_hd__decap_12
XFILLER_31_78 VGND VGND VPWR VPWR sky130_fd_sc_hd__decap_3
XFILLER_16_112 VGND VGND VPWR VPWR sky130_fd_sc_hd__decap_8
XANTENNA_mux_left_track_7.mux_l2_in_1__S mux_left_track_7.mux_l2_in_1_/S VGND VGND
+ VPWR VPWR sky130_fd_sc_hd__diode_2
XTAP_104 VGND VPWR sky130_fd_sc_hd__tapvpwrvgnd_1
XTAP_115 VGND VPWR sky130_fd_sc_hd__tapvpwrvgnd_1
XTAP_126 VGND VPWR sky130_fd_sc_hd__tapvpwrvgnd_1
XTAP_137 VGND VPWR sky130_fd_sc_hd__tapvpwrvgnd_1
Xmux_top_track_0.mux_l2_in_1_ _043_/HI mux_top_track_0.mux_l1_in_2_/X mux_top_track_0.mux_l2_in_1_/S
+ VGND VGND VPWR VPWR mux_top_track_0.mux_l2_in_1_/X sky130_fd_sc_hd__mux2_1
XTAP_148 VGND VPWR sky130_fd_sc_hd__tapvpwrvgnd_1
XFILLER_11_3 VGND VPWR VPWR VGND sky130_ef_sc_hd__decap_12
XANTENNA_mem_left_track_17.sky130_fd_sc_hd__dfxtp_1_1__CLK prog_clk_0_FTB00/X VGND
+ VGND VPWR VPWR sky130_fd_sc_hd__diode_2
XTAP_159 VGND VPWR sky130_fd_sc_hd__tapvpwrvgnd_1
XANTENNA_mux_left_track_1.mux_l1_in_1__A0 left_bottom_grid_pin_9_ VGND VGND VPWR VPWR
+ sky130_fd_sc_hd__diode_2
XANTENNA_mux_top_track_2.mux_l1_in_1__A1 top_left_grid_pin_47_ VGND VGND VPWR VPWR
+ sky130_fd_sc_hd__diode_2
XFILLER_13_115 VGND VGND VPWR VPWR sky130_fd_sc_hd__decap_4
XFILLER_26_12 VGND VGND VPWR VPWR sky130_fd_sc_hd__decap_4
XFILLER_3_27 VGND VPWR VPWR VGND sky130_ef_sc_hd__decap_12
Xmux_top_track_22.sky130_fd_sc_hd__buf_4_0_ mux_top_track_22.mux_l2_in_0_/X VGND VGND
+ VPWR VPWR _099_/A sky130_fd_sc_hd__buf_4
XFILLER_8_141 VGND VPWR VPWR VGND sky130_ef_sc_hd__decap_12
XFILLER_12_14 VGND VPWR VPWR VGND sky130_ef_sc_hd__decap_12
Xmux_top_track_0.mux_l1_in_2_ chanx_left_in[0] top_right_grid_pin_1_ mux_top_track_0.mux_l1_in_2_/S
+ VGND VGND VPWR VPWR mux_top_track_0.mux_l1_in_2_/X sky130_fd_sc_hd__mux2_1
XFILLER_32_221 VGND VGND VPWR VPWR sky130_fd_sc_hd__fill_2
XANTENNA_mux_top_track_14.mux_l1_in_0__A0 chanx_left_in[13] VGND VGND VPWR VPWR sky130_fd_sc_hd__diode_2
Xmux_top_track_22.mux_l1_in_0_ chanx_left_in[9] top_left_grid_pin_49_ mux_top_track_22.mux_l1_in_0_/S
+ VGND VGND VPWR VPWR mux_top_track_22.mux_l1_in_0_/X sky130_fd_sc_hd__mux2_1
Xmux_top_track_16.sky130_fd_sc_hd__buf_4_0_ mux_top_track_16.mux_l2_in_0_/X VGND VGND
+ VPWR VPWR _096_/A sky130_fd_sc_hd__buf_4
XFILLER_23_221 VGND VGND VPWR VPWR sky130_fd_sc_hd__fill_2
XFILLER_23_57 VGND VGND VPWR VPWR sky130_fd_sc_hd__fill_1
XFILLER_9_15 VGND VPWR VPWR VGND sky130_ef_sc_hd__decap_12
XFILLER_14_221 VGND VGND VPWR VPWR sky130_fd_sc_hd__fill_2
XANTENNA_mux_left_track_39.mux_l1_in_0__S mux_left_track_39.mux_l1_in_0_/S VGND VGND
+ VPWR VPWR sky130_fd_sc_hd__diode_2
Xmux_left_track_15.mux_l1_in_0_ left_bottom_grid_pin_7_ chany_top_in[13] mux_left_track_15.mux_l1_in_0_/S
+ VGND VGND VPWR VPWR mux_left_track_15.mux_l1_in_0_/X sky130_fd_sc_hd__mux2_1
XFILLER_18_57 VGND VGND VPWR VPWR sky130_fd_sc_hd__fill_2
XFILLER_18_68 VGND VGND VPWR VPWR sky130_fd_sc_hd__decap_3
XFILLER_11_213 VGND VGND VPWR VPWR sky130_fd_sc_hd__fill_2
XFILLER_7_217 VGND VGND VPWR VPWR sky130_fd_sc_hd__decap_6
X_041_ VGND VGND VPWR VPWR _041_/HI _041_/LO sky130_fd_sc_hd__conb_1
Xmux_left_track_27.mux_l2_in_0_ _066_/HI mux_left_track_27.mux_l1_in_0_/X mux_left_track_27.mux_l2_in_0_/S
+ VGND VGND VPWR VPWR mux_left_track_27.mux_l2_in_0_/X sky130_fd_sc_hd__mux2_1
XANTENNA_mem_top_track_2.sky130_fd_sc_hd__dfxtp_1_1__D mux_top_track_2.mux_l1_in_1_/S
+ VGND VGND VPWR VPWR sky130_fd_sc_hd__diode_2
XFILLER_1_93 VGND VPWR VPWR VGND sky130_ef_sc_hd__decap_12
XFILLER_4_209 VGND VPWR VPWR VGND sky130_ef_sc_hd__decap_12
XANTENNA_mem_top_track_4.sky130_fd_sc_hd__dfxtp_1_2__CLK prog_clk_0_FTB00/X VGND VGND
+ VPWR VPWR sky130_fd_sc_hd__diode_2
XFILLER_29_45 VGND VGND VPWR VPWR sky130_fd_sc_hd__decap_3
XFILLER_28_187 VGND VGND VPWR VPWR sky130_fd_sc_hd__decap_4
XFILLER_29_89 VGND VGND VPWR VPWR sky130_fd_sc_hd__fill_1
XFILLER_6_27 VGND VGND VPWR VPWR sky130_fd_sc_hd__fill_1
Xmem_top_track_16.sky130_fd_sc_hd__dfxtp_1_0_ prog_clk_0_FTB00/X mux_top_track_14.mux_l2_in_0_/S
+ VGND VGND VPWR VPWR mux_top_track_16.mux_l1_in_0_/S sky130_fd_sc_hd__dfxtp_1
XFILLER_19_110 VGND VGND VPWR VPWR sky130_fd_sc_hd__fill_2
Xmux_left_track_7.mux_l1_in_0_ left_bottom_grid_pin_3_ chany_top_in[17] mux_left_track_7.mux_l1_in_1_/S
+ VGND VGND VPWR VPWR mux_left_track_7.mux_l1_in_0_/X sky130_fd_sc_hd__mux2_1
XFILLER_15_36 VGND VGND VPWR VPWR sky130_fd_sc_hd__fill_2
Xmux_top_track_0.sky130_fd_sc_hd__buf_4_0_ mux_top_track_0.mux_l3_in_0_/X VGND VGND
+ VPWR VPWR _088_/A sky130_fd_sc_hd__buf_4
XFILLER_31_24 VGND VGND VPWR VPWR sky130_fd_sc_hd__fill_1
XFILLER_31_57 VGND VGND VPWR VPWR sky130_fd_sc_hd__fill_2
XFILLER_16_157 VGND VGND VPWR VPWR sky130_fd_sc_hd__fill_2
XFILLER_24_190 VGND VGND VPWR VPWR sky130_fd_sc_hd__fill_2
XFILLER_31_105 VGND VGND VPWR VPWR sky130_fd_sc_hd__decap_6
XTAP_105 VGND VPWR sky130_fd_sc_hd__tapvpwrvgnd_1
XTAP_116 VGND VPWR sky130_fd_sc_hd__tapvpwrvgnd_1
XTAP_127 VGND VPWR sky130_fd_sc_hd__tapvpwrvgnd_1
XTAP_138 VGND VPWR sky130_fd_sc_hd__tapvpwrvgnd_1
XTAP_149 VGND VPWR sky130_fd_sc_hd__tapvpwrvgnd_1
Xmux_top_track_0.mux_l2_in_0_ mux_top_track_0.mux_l1_in_1_/X mux_top_track_0.mux_l1_in_0_/X
+ mux_top_track_0.mux_l2_in_1_/S VGND VGND VPWR VPWR mux_top_track_0.mux_l2_in_0_/X
+ sky130_fd_sc_hd__mux2_1
XFILLER_22_138 VGND VGND VPWR VPWR sky130_fd_sc_hd__fill_2
XANTENNA_mux_left_track_1.mux_l1_in_1__A1 left_bottom_grid_pin_5_ VGND VGND VPWR VPWR
+ sky130_fd_sc_hd__diode_2
XFILLER_26_57 VGND VGND VPWR VPWR sky130_fd_sc_hd__fill_2
XFILLER_26_68 VGND VGND VPWR VPWR sky130_fd_sc_hd__decap_4
XFILLER_21_171 VGND VGND VPWR VPWR sky130_fd_sc_hd__decap_6
XFILLER_21_193 VGND VGND VPWR VPWR sky130_fd_sc_hd__fill_2
XFILLER_3_39 VGND VPWR VPWR VGND sky130_ef_sc_hd__decap_12
XANTENNA_mux_top_track_22.mux_l1_in_0__A0 chanx_left_in[9] VGND VGND VPWR VPWR sky130_fd_sc_hd__diode_2
XFILLER_8_197 VGND VPWR VPWR VGND sky130_ef_sc_hd__decap_12
XFILLER_8_153 VGND VPWR VPWR VGND sky130_ef_sc_hd__decap_12
XFILLER_10_119 VGND VGND VPWR VPWR sky130_fd_sc_hd__fill_2
XFILLER_12_26 VGND VGND VPWR VPWR sky130_fd_sc_hd__fill_2
Xmux_top_track_0.mux_l1_in_1_ top_left_grid_pin_48_ top_left_grid_pin_46_ mux_top_track_0.mux_l1_in_2_/S
+ VGND VGND VPWR VPWR mux_top_track_0.mux_l1_in_1_/X sky130_fd_sc_hd__mux2_1
XFILLER_5_167 VGND VGND VPWR VPWR sky130_fd_sc_hd__fill_1
Xmem_left_track_21.sky130_fd_sc_hd__dfxtp_1_1_ prog_clk_0_FTB00/X mux_left_track_21.mux_l1_in_0_/S
+ VGND VGND VPWR VPWR mux_left_track_21.mux_l2_in_0_/S sky130_fd_sc_hd__dfxtp_1
XANTENNA_mux_top_track_14.mux_l1_in_0__A1 top_left_grid_pin_45_ VGND VGND VPWR VPWR
+ sky130_fd_sc_hd__diode_2
XFILLER_23_14 VGND VGND VPWR VPWR sky130_fd_sc_hd__fill_2
XFILLER_0_29 VGND VPWR VPWR VGND sky130_ef_sc_hd__decap_12
XFILLER_14_200 VGND VGND VPWR VPWR sky130_fd_sc_hd__decap_4
XFILLER_9_27 VGND VPWR VPWR VGND sky130_ef_sc_hd__decap_12
XFILLER_1_181 VGND VPWR VPWR VGND sky130_ef_sc_hd__decap_12
XANTENNA_mux_top_track_6.mux_l1_in_0__A0 top_left_grid_pin_45_ VGND VGND VPWR VPWR
+ sky130_fd_sc_hd__diode_2
X_040_ VGND VGND VPWR VPWR _040_/HI _040_/LO sky130_fd_sc_hd__conb_1
XFILLER_1_3 VGND VPWR VPWR VGND sky130_ef_sc_hd__decap_12
XANTENNA_mux_top_track_2.mux_l2_in_0__S mux_top_track_2.mux_l2_in_1_/S VGND VGND VPWR
+ VPWR sky130_fd_sc_hd__diode_2
XANTENNA_mem_left_track_7.sky130_fd_sc_hd__dfxtp_1_1__CLK prog_clk_0_FTB00/X VGND
+ VGND VPWR VPWR sky130_fd_sc_hd__diode_2
XANTENNA_mux_top_track_4.mux_l1_in_2__A0 chanx_left_in[18] VGND VGND VPWR VPWR sky130_fd_sc_hd__diode_2
XFILLER_20_15 VGND VGND VPWR VPWR sky130_fd_sc_hd__fill_2
XFILLER_20_26 VGND VGND VPWR VPWR sky130_fd_sc_hd__fill_2
XFILLER_29_24 VGND VGND VPWR VPWR sky130_fd_sc_hd__fill_2
XFILLER_28_199 VGND VGND VPWR VPWR sky130_fd_sc_hd__fill_2
XFILLER_19_122 VGND VGND VPWR VPWR sky130_fd_sc_hd__decap_4
XANTENNA_mem_left_track_39.sky130_fd_sc_hd__dfxtp_1_1__D mux_left_track_39.mux_l1_in_0_/S
+ VGND VGND VPWR VPWR sky130_fd_sc_hd__diode_2
XFILLER_25_147 VGND VGND VPWR VPWR sky130_fd_sc_hd__fill_2
Xmux_left_track_27.mux_l1_in_0_ left_bottom_grid_pin_3_ chany_top_in[7] mux_left_track_27.mux_l1_in_0_/S
+ VGND VGND VPWR VPWR mux_left_track_27.mux_l1_in_0_/X sky130_fd_sc_hd__mux2_1
XFILLER_31_139 VGND VGND VPWR VPWR sky130_fd_sc_hd__fill_2
Xmux_left_track_39.mux_l2_in_0_ _039_/HI mux_left_track_39.mux_l1_in_0_/X ccff_tail
+ VGND VGND VPWR VPWR mux_left_track_39.mux_l2_in_0_/X sky130_fd_sc_hd__mux2_1
XTAP_106 VGND VPWR sky130_fd_sc_hd__tapvpwrvgnd_1
XTAP_117 VGND VPWR sky130_fd_sc_hd__tapvpwrvgnd_1
XTAP_128 VGND VPWR sky130_fd_sc_hd__tapvpwrvgnd_1
XTAP_139 VGND VPWR sky130_fd_sc_hd__tapvpwrvgnd_1
XPHY_0 VGND VGND VPWR VPWR sky130_fd_sc_hd__decap_3
XFILLER_30_161 VGND VGND VPWR VPWR sky130_fd_sc_hd__fill_2
XFILLER_30_183 VGND VGND VPWR VPWR sky130_fd_sc_hd__decap_4
XFILLER_30_194 VGND VGND VPWR VPWR sky130_fd_sc_hd__fill_2
XFILLER_7_82 VGND VGND VPWR VPWR sky130_fd_sc_hd__fill_1
XFILLER_7_60 VGND VGND VPWR VPWR sky130_fd_sc_hd__fill_2
XFILLER_26_47 VGND VGND VPWR VPWR sky130_fd_sc_hd__decap_4
XANTENNA_mux_top_track_22.mux_l1_in_0__A1 top_left_grid_pin_49_ VGND VGND VPWR VPWR
+ sky130_fd_sc_hd__diode_2
XFILLER_8_165 VGND VPWR VPWR VGND sky130_ef_sc_hd__decap_12
XFILLER_10_109 VGND VGND VPWR VPWR sky130_fd_sc_hd__fill_1
XANTENNA_mux_left_track_15.mux_l1_in_0__A0 left_bottom_grid_pin_7_ VGND VGND VPWR
+ VPWR sky130_fd_sc_hd__diode_2
Xmux_top_track_0.mux_l1_in_0_ top_left_grid_pin_44_ top_left_grid_pin_42_ mux_top_track_0.mux_l1_in_2_/S
+ VGND VGND VPWR VPWR mux_top_track_0.mux_l1_in_0_/X sky130_fd_sc_hd__mux2_1
Xmem_left_track_21.sky130_fd_sc_hd__dfxtp_1_0_ prog_clk_0_FTB00/X mux_left_track_19.mux_l2_in_0_/S
+ VGND VGND VPWR VPWR mux_left_track_21.mux_l1_in_0_/S sky130_fd_sc_hd__dfxtp_1
XFILLER_4_83 VGND VGND VPWR VPWR sky130_fd_sc_hd__fill_1
XANTENNA_mem_left_track_1.sky130_fd_sc_hd__dfxtp_1_1__D mux_left_track_1.mux_l1_in_2_/S
+ VGND VGND VPWR VPWR sky130_fd_sc_hd__diode_2
XANTENNA_mem_top_track_26.sky130_fd_sc_hd__dfxtp_1_0__CLK prog_clk_0_FTB00/X VGND
+ VGND VPWR VPWR sky130_fd_sc_hd__diode_2
XFILLER_9_39 VGND VGND VPWR VPWR sky130_fd_sc_hd__decap_8
XFILLER_13_70 VGND VGND VPWR VPWR sky130_fd_sc_hd__fill_2
XFILLER_1_193 VGND VPWR VPWR VGND sky130_ef_sc_hd__decap_12
XANTENNA_mux_top_track_6.mux_l1_in_0__A1 top_left_grid_pin_43_ VGND VGND VPWR VPWR
+ sky130_fd_sc_hd__diode_2
XANTENNA_mux_left_track_5.mux_l1_in_0__A0 left_bottom_grid_pin_1_ VGND VGND VPWR VPWR
+ sky130_fd_sc_hd__diode_2
XFILLER_18_15 VGND VGND VPWR VPWR sky130_fd_sc_hd__fill_2
XFILLER_18_26 VGND VGND VPWR VPWR sky130_fd_sc_hd__fill_2
X_099_ _099_/A VGND VGND VPWR VPWR chany_top_out[11] sky130_fd_sc_hd__buf_2
XFILLER_27_3 VGND VGND VPWR VPWR sky130_fd_sc_hd__decap_4
XFILLER_1_51 VGND VGND VPWR VPWR sky130_fd_sc_hd__decap_4
Xmem_left_track_27.sky130_fd_sc_hd__dfxtp_1_1_ prog_clk_0_FTB00/X mux_left_track_27.mux_l1_in_0_/S
+ VGND VGND VPWR VPWR mux_left_track_27.mux_l2_in_0_/S sky130_fd_sc_hd__dfxtp_1
XANTENNA_mux_top_track_4.mux_l1_in_2__A1 top_right_grid_pin_1_ VGND VGND VPWR VPWR
+ sky130_fd_sc_hd__diode_2
XANTENNA_mem_top_track_18.sky130_fd_sc_hd__dfxtp_1_1__CLK prog_clk_0_FTB00/X VGND
+ VGND VPWR VPWR sky130_fd_sc_hd__diode_2
XFILLER_29_36 VGND VGND VPWR VPWR sky130_fd_sc_hd__fill_2
XANTENNA_mux_left_track_35.mux_l1_in_0__S mux_left_track_35.mux_l1_in_0_/S VGND VGND
+ VPWR VPWR sky130_fd_sc_hd__diode_2
XFILLER_6_29 VGND VPWR VPWR VGND sky130_ef_sc_hd__decap_12
XFILLER_10_82 VGND VGND VPWR VPWR sky130_fd_sc_hd__fill_2
XFILLER_19_80 VGND VGND VPWR VPWR sky130_fd_sc_hd__fill_2
XFILLER_19_91 VGND VGND VPWR VPWR sky130_fd_sc_hd__fill_2
XFILLER_19_101 VGND VGND VPWR VPWR sky130_fd_sc_hd__fill_1
XFILLER_19_189 VGND VGND VPWR VPWR sky130_fd_sc_hd__decap_4
XANTENNA_mem_left_track_29.sky130_fd_sc_hd__dfxtp_1_0__CLK prog_clk_0_FTB00/X VGND
+ VGND VPWR VPWR sky130_fd_sc_hd__diode_2
XFILLER_33_181 VGND VGND VPWR VPWR sky130_fd_sc_hd__decap_8
XFILLER_25_159 VGND VGND VPWR VPWR sky130_fd_sc_hd__decap_8
XFILLER_21_92 VGND VGND VPWR VPWR sky130_fd_sc_hd__decap_3