* NGSPICE file created from sb_2__1_.ext - technology: sky130A

* Black-box entry subcircuit for sky130_fd_sc_hd__tapvpwrvgnd_1 abstract view
.subckt sky130_fd_sc_hd__tapvpwrvgnd_1 VGND VPWR
.ends

* Black-box entry subcircuit for sky130_fd_sc_hd__fill_1 abstract view
.subckt sky130_fd_sc_hd__fill_1 VGND VNB VPB VPWR
.ends

* Black-box entry subcircuit for sky130_fd_sc_hd__diode_2 abstract view
.subckt sky130_fd_sc_hd__diode_2 DIODE VGND VNB VPB VPWR
.ends

* Black-box entry subcircuit for sky130_fd_sc_hd__mux2_1 abstract view
.subckt sky130_fd_sc_hd__mux2_1 A0 A1 S VGND VNB VPB VPWR X
.ends

* Black-box entry subcircuit for sky130_fd_sc_hd__dfxtp_1 abstract view
.subckt sky130_fd_sc_hd__dfxtp_1 CLK D VGND VNB VPB VPWR Q
.ends

* Black-box entry subcircuit for sky130_fd_sc_hd__decap_8 abstract view
.subckt sky130_fd_sc_hd__decap_8 VGND VNB VPB VPWR
.ends

* Black-box entry subcircuit for sky130_fd_sc_hd__decap_6 abstract view
.subckt sky130_fd_sc_hd__decap_6 VGND VNB VPB VPWR
.ends

* Black-box entry subcircuit for sky130_fd_sc_hd__conb_1 abstract view
.subckt sky130_fd_sc_hd__conb_1 VGND VNB VPB VPWR HI LO
.ends

* Black-box entry subcircuit for sky130_fd_sc_hd__decap_3 abstract view
.subckt sky130_fd_sc_hd__decap_3 VGND VNB VPB VPWR
.ends

* Black-box entry subcircuit for sky130_fd_sc_hd__fill_2 abstract view
.subckt sky130_fd_sc_hd__fill_2 VGND VNB VPB VPWR
.ends

* Black-box entry subcircuit for sky130_fd_sc_hd__buf_2 abstract view
.subckt sky130_fd_sc_hd__buf_2 A VGND VNB VPB VPWR X
.ends

* Black-box entry subcircuit for sky130_fd_sc_hd__buf_4 abstract view
.subckt sky130_fd_sc_hd__buf_4 A VGND VNB VPB VPWR X
.ends

* Black-box entry subcircuit for sky130_fd_sc_hd__decap_4 abstract view
.subckt sky130_fd_sc_hd__decap_4 VGND VNB VPB VPWR
.ends

* Black-box entry subcircuit for sky130_ef_sc_hd__decap_12 abstract view
.subckt sky130_ef_sc_hd__decap_12 VGND VPWR VPB VNB
.ends

* Black-box entry subcircuit for sky130_fd_sc_hd__buf_8 abstract view
.subckt sky130_fd_sc_hd__buf_8 A VGND VNB VPB VPWR X
.ends

.subckt sb_2__1_ VGND VPWR bottom_left_grid_pin_42_ bottom_left_grid_pin_43_ bottom_left_grid_pin_44_
+ bottom_left_grid_pin_45_ bottom_left_grid_pin_46_ bottom_left_grid_pin_47_ bottom_left_grid_pin_48_
+ bottom_left_grid_pin_49_ bottom_right_grid_pin_1_ ccff_head ccff_tail chanx_left_in[0]
+ chanx_left_in[10] chanx_left_in[11] chanx_left_in[12] chanx_left_in[13] chanx_left_in[14]
+ chanx_left_in[15] chanx_left_in[16] chanx_left_in[17] chanx_left_in[18] chanx_left_in[19]
+ chanx_left_in[1] chanx_left_in[2] chanx_left_in[3] chanx_left_in[4] chanx_left_in[5]
+ chanx_left_in[6] chanx_left_in[7] chanx_left_in[8] chanx_left_in[9] chanx_left_out[0]
+ chanx_left_out[10] chanx_left_out[11] chanx_left_out[12] chanx_left_out[13] chanx_left_out[14]
+ chanx_left_out[15] chanx_left_out[16] chanx_left_out[17] chanx_left_out[18] chanx_left_out[19]
+ chanx_left_out[1] chanx_left_out[2] chanx_left_out[3] chanx_left_out[4] chanx_left_out[5]
+ chanx_left_out[6] chanx_left_out[7] chanx_left_out[8] chanx_left_out[9] chany_bottom_in[0]
+ chany_bottom_in[10] chany_bottom_in[11] chany_bottom_in[12] chany_bottom_in[13]
+ chany_bottom_in[14] chany_bottom_in[15] chany_bottom_in[16] chany_bottom_in[17]
+ chany_bottom_in[18] chany_bottom_in[19] chany_bottom_in[1] chany_bottom_in[2] chany_bottom_in[3]
+ chany_bottom_in[4] chany_bottom_in[5] chany_bottom_in[6] chany_bottom_in[7] chany_bottom_in[8]
+ chany_bottom_in[9] chany_bottom_out[0] chany_bottom_out[10] chany_bottom_out[11]
+ chany_bottom_out[12] chany_bottom_out[13] chany_bottom_out[14] chany_bottom_out[15]
+ chany_bottom_out[16] chany_bottom_out[17] chany_bottom_out[18] chany_bottom_out[19]
+ chany_bottom_out[1] chany_bottom_out[2] chany_bottom_out[3] chany_bottom_out[4]
+ chany_bottom_out[5] chany_bottom_out[6] chany_bottom_out[7] chany_bottom_out[8]
+ chany_bottom_out[9] chany_top_in[0] chany_top_in[10] chany_top_in[11] chany_top_in[12]
+ chany_top_in[13] chany_top_in[14] chany_top_in[15] chany_top_in[16] chany_top_in[17]
+ chany_top_in[18] chany_top_in[19] chany_top_in[1] chany_top_in[2] chany_top_in[3]
+ chany_top_in[4] chany_top_in[5] chany_top_in[6] chany_top_in[7] chany_top_in[8]
+ chany_top_in[9] chany_top_out[0] chany_top_out[10] chany_top_out[11] chany_top_out[12]
+ chany_top_out[13] chany_top_out[14] chany_top_out[15] chany_top_out[16] chany_top_out[17]
+ chany_top_out[18] chany_top_out[19] chany_top_out[1] chany_top_out[2] chany_top_out[3]
+ chany_top_out[4] chany_top_out[5] chany_top_out[6] chany_top_out[7] chany_top_out[8]
+ chany_top_out[9] left_bottom_grid_pin_34_ left_bottom_grid_pin_35_ left_bottom_grid_pin_36_
+ left_bottom_grid_pin_37_ left_bottom_grid_pin_38_ left_bottom_grid_pin_39_ left_bottom_grid_pin_40_
+ left_bottom_grid_pin_41_ prog_clk_0_N_in top_left_grid_pin_42_ top_left_grid_pin_43_
+ top_left_grid_pin_44_ top_left_grid_pin_45_ top_left_grid_pin_46_ top_left_grid_pin_47_
+ top_left_grid_pin_48_ top_left_grid_pin_49_ top_right_grid_pin_1_
XTAP_177 VGND VPWR sky130_fd_sc_hd__tapvpwrvgnd_1
XTAP_188 VGND VPWR sky130_fd_sc_hd__tapvpwrvgnd_1
XFILLER_26_85 VGND VGND VPWR VPWR sky130_fd_sc_hd__fill_1
XANTENNA_mux_top_track_16.mux_l1_in_2__S mux_top_track_16.mux_l1_in_3_/S VGND VGND
+ VPWR VPWR sky130_fd_sc_hd__diode_2
Xmux_bottom_track_3.mux_l1_in_1_ bottom_left_grid_pin_44_ bottom_left_grid_pin_42_
+ mux_bottom_track_3.mux_l1_in_1_/S VGND VGND VPWR VPWR mux_bottom_track_3.mux_l1_in_1_/X
+ sky130_fd_sc_hd__mux2_1
Xmem_left_track_17.sky130_fd_sc_hd__dfxtp_1_0_ prog_clk_0_FTB00/X mux_left_track_15.mux_l3_in_0_/S
+ VGND VGND VPWR VPWR mux_left_track_17.mux_l1_in_1_/S sky130_fd_sc_hd__dfxtp_1
XANTENNA_mux_left_track_35.mux_l1_in_0__A1 chany_top_in[7] VGND VGND VPWR VPWR sky130_fd_sc_hd__diode_2
XFILLER_5_140 VGND VGND VPWR VPWR sky130_fd_sc_hd__decap_8
XANTENNA_mem_left_track_9.sky130_fd_sc_hd__dfxtp_1_0__CLK prog_clk_0_FTB00/X VGND
+ VGND VPWR VPWR sky130_fd_sc_hd__diode_2
XANTENNA__124__A chany_bottom_in[17] VGND VGND VPWR VPWR sky130_fd_sc_hd__diode_2
XANTENNA_mem_top_track_32.sky130_fd_sc_hd__dfxtp_1_1__CLK prog_clk_0_FTB00/X VGND
+ VGND VPWR VPWR sky130_fd_sc_hd__diode_2
XFILLER_15_217 VGND VGND VPWR VPWR sky130_fd_sc_hd__decap_6
XANTENNA_mux_top_track_0.mux_l1_in_0__A0 top_left_grid_pin_44_ VGND VGND VPWR VPWR
+ sky130_fd_sc_hd__diode_2
X_062_ VGND VGND VPWR VPWR _062_/HI _062_/LO sky130_fd_sc_hd__conb_1
XFILLER_2_187 VGND VGND VPWR VPWR sky130_fd_sc_hd__decap_3
XFILLER_2_165 VGND VGND VPWR VPWR sky130_fd_sc_hd__fill_2
XFILLER_0_57 VGND VGND VPWR VPWR sky130_fd_sc_hd__decap_6
XFILLER_0_79 VGND VGND VPWR VPWR sky130_fd_sc_hd__fill_1
XANTENNA__119__A chany_bottom_in[12] VGND VGND VPWR VPWR sky130_fd_sc_hd__diode_2
XFILLER_20_220 VGND VGND VPWR VPWR sky130_fd_sc_hd__fill_1
XANTENNA_mem_left_track_21.sky130_fd_sc_hd__dfxtp_1_0__CLK prog_clk_0_FTB00/X VGND
+ VGND VPWR VPWR sky130_fd_sc_hd__diode_2
XFILLER_18_97 VGND VGND VPWR VPWR sky130_fd_sc_hd__fill_2
X_045_ VGND VGND VPWR VPWR _045_/HI _045_/LO sky130_fd_sc_hd__conb_1
X_114_ _114_/A VGND VGND VPWR VPWR chany_top_out[8] sky130_fd_sc_hd__buf_2
XANTENNA_mem_top_track_24.sky130_fd_sc_hd__dfxtp_1_2__CLK prog_clk_0_FTB00/X VGND
+ VGND VPWR VPWR sky130_fd_sc_hd__diode_2
Xmem_bottom_track_25.sky130_fd_sc_hd__dfxtp_1_2_ prog_clk_0_FTB00/X mux_bottom_track_25.mux_l2_in_1_/S
+ VGND VGND VPWR VPWR mux_bottom_track_25.mux_l3_in_0_/S sky130_fd_sc_hd__dfxtp_1
Xmux_bottom_track_17.mux_l1_in_0_ chany_top_in[17] chany_top_in[8] mux_bottom_track_17.mux_l1_in_3_/S
+ VGND VGND VPWR VPWR mux_bottom_track_17.mux_l1_in_0_/X sky130_fd_sc_hd__mux2_1
XFILLER_20_43 VGND VGND VPWR VPWR sky130_fd_sc_hd__decap_8
XANTENNA_mem_left_track_35.sky130_fd_sc_hd__dfxtp_1_1__CLK prog_clk_0_FTB00/X VGND
+ VGND VPWR VPWR sky130_fd_sc_hd__diode_2
XFILLER_6_67 VGND VGND VPWR VPWR sky130_fd_sc_hd__decap_3
XANTENNA_mem_bottom_track_33.sky130_fd_sc_hd__dfxtp_1_1__D mux_bottom_track_33.mux_l1_in_2_/S
+ VGND VGND VPWR VPWR sky130_fd_sc_hd__diode_2
XFILLER_13_3 VGND VGND VPWR VPWR sky130_fd_sc_hd__fill_1
XANTENNA_mem_left_track_13.sky130_fd_sc_hd__dfxtp_1_1__CLK prog_clk_0_FTB00/X VGND
+ VGND VPWR VPWR sky130_fd_sc_hd__diode_2
XFILLER_31_75 VGND VGND VPWR VPWR sky130_fd_sc_hd__fill_1
Xmux_bottom_track_3.sky130_fd_sc_hd__buf_4_0_ mux_bottom_track_3.mux_l4_in_0_/X VGND
+ VGND VPWR VPWR _087_/A sky130_fd_sc_hd__buf_4
XANTENNA_mux_bottom_track_3.mux_l1_in_1__A0 bottom_left_grid_pin_44_ VGND VGND VPWR
+ VPWR sky130_fd_sc_hd__diode_2
XFILLER_16_186 VGND VGND VPWR VPWR sky130_fd_sc_hd__decap_8
XFILLER_16_197 VGND VGND VPWR VPWR sky130_fd_sc_hd__decap_4
XANTENNA_mux_top_track_0.mux_l2_in_1__S mux_top_track_0.mux_l2_in_3_/S VGND VGND VPWR
+ VPWR sky130_fd_sc_hd__diode_2
XFILLER_31_101 VGND VGND VPWR VPWR sky130_fd_sc_hd__decap_8
XFILLER_31_167 VGND VGND VPWR VPWR sky130_fd_sc_hd__fill_1
XTAP_101 VGND VPWR sky130_fd_sc_hd__tapvpwrvgnd_1
XTAP_112 VGND VPWR sky130_fd_sc_hd__tapvpwrvgnd_1
XTAP_123 VGND VPWR sky130_fd_sc_hd__tapvpwrvgnd_1
XTAP_134 VGND VPWR sky130_fd_sc_hd__tapvpwrvgnd_1
XTAP_145 VGND VPWR sky130_fd_sc_hd__tapvpwrvgnd_1
XTAP_156 VGND VPWR sky130_fd_sc_hd__tapvpwrvgnd_1
XTAP_167 VGND VPWR sky130_fd_sc_hd__tapvpwrvgnd_1
XTAP_178 VGND VPWR sky130_fd_sc_hd__tapvpwrvgnd_1
XTAP_189 VGND VPWR sky130_fd_sc_hd__tapvpwrvgnd_1
Xmem_bottom_track_3.sky130_fd_sc_hd__dfxtp_1_3_ prog_clk_0_FTB00/X mux_bottom_track_3.mux_l3_in_1_/S
+ VGND VGND VPWR VPWR mux_bottom_track_3.mux_l4_in_0_/S sky130_fd_sc_hd__dfxtp_1
XFILLER_9_116 VGND VGND VPWR VPWR sky130_fd_sc_hd__fill_1
XFILLER_26_42 VGND VGND VPWR VPWR sky130_fd_sc_hd__decap_6
Xmux_bottom_track_3.mux_l1_in_0_ chany_top_in[13] chany_top_in[4] mux_bottom_track_3.mux_l1_in_1_/S
+ VGND VGND VPWR VPWR mux_bottom_track_3.mux_l1_in_0_/X sky130_fd_sc_hd__mux2_1
XFILLER_10_126 VGND VPWR VPWR VGND sky130_ef_sc_hd__decap_12
XANTENNA_mem_bottom_track_3.sky130_fd_sc_hd__dfxtp_1_1__CLK prog_clk_0_FTB00/X VGND
+ VGND VPWR VPWR sky130_fd_sc_hd__diode_2
XANTENNA_mux_top_track_0.mux_l1_in_0__A1 top_left_grid_pin_42_ VGND VGND VPWR VPWR
+ sky130_fd_sc_hd__diode_2
X_061_ VGND VGND VPWR VPWR _061_/HI _061_/LO sky130_fd_sc_hd__conb_1
XANTENNA_mux_bottom_track_1.mux_l2_in_2__A0 chanx_left_in[8] VGND VGND VPWR VPWR sky130_fd_sc_hd__diode_2
XFILLER_2_111 VGND VGND VPWR VPWR sky130_fd_sc_hd__fill_1
Xmux_left_track_9.sky130_fd_sc_hd__buf_4_0_ mux_left_track_9.mux_l3_in_0_/X VGND VGND
+ VPWR VPWR _070_/A sky130_fd_sc_hd__buf_4
XANTENNA_mem_top_track_0.sky130_fd_sc_hd__dfxtp_1_2__CLK prog_clk_0_FTB00/X VGND VGND
+ VPWR VPWR sky130_fd_sc_hd__diode_2
X_113_ chany_bottom_in[6] VGND VGND VPWR VPWR chany_top_out[7] sky130_fd_sc_hd__buf_2
XANTENNA_mux_top_track_24.mux_l1_in_0__S mux_top_track_24.mux_l1_in_3_/S VGND VGND
+ VPWR VPWR sky130_fd_sc_hd__diode_2
X_044_ VGND VGND VPWR VPWR _044_/HI _044_/LO sky130_fd_sc_hd__conb_1
Xmem_bottom_track_25.sky130_fd_sc_hd__dfxtp_1_1_ prog_clk_0_FTB00/X mux_bottom_track_25.mux_l1_in_2_/S
+ VGND VGND VPWR VPWR mux_bottom_track_25.mux_l2_in_1_/S sky130_fd_sc_hd__dfxtp_1
XFILLER_29_129 VGND VGND VPWR VPWR sky130_fd_sc_hd__fill_1
Xmux_left_track_31.sky130_fd_sc_hd__buf_4_0_ mux_left_track_31.mux_l2_in_0_/X VGND
+ VGND VPWR VPWR _081_/A sky130_fd_sc_hd__buf_4
XFILLER_29_86 VGND VGND VPWR VPWR sky130_fd_sc_hd__fill_2
XANTENNA_mem_top_track_0.sky130_fd_sc_hd__dfxtp_1_0__D ccff_head VGND VGND VPWR VPWR
+ sky130_fd_sc_hd__diode_2
XFILLER_28_195 VGND VGND VPWR VPWR sky130_fd_sc_hd__fill_1
Xmem_left_track_35.sky130_fd_sc_hd__dfxtp_1_1_ prog_clk_0_FTB00/X mux_left_track_35.mux_l1_in_0_/S
+ VGND VGND VPWR VPWR mux_left_track_35.mux_l2_in_0_/S sky130_fd_sc_hd__dfxtp_1
Xmux_left_track_7.mux_l1_in_3_ _046_/HI left_bottom_grid_pin_41_ mux_left_track_7.mux_l1_in_3_/S
+ VGND VGND VPWR VPWR mux_left_track_7.mux_l1_in_3_/X sky130_fd_sc_hd__mux2_1
XANTENNA_mem_bottom_track_9.sky130_fd_sc_hd__dfxtp_1_3__CLK prog_clk_0_FTB00/X VGND
+ VGND VPWR VPWR sky130_fd_sc_hd__diode_2
XFILLER_15_55 VGND VGND VPWR VPWR sky130_fd_sc_hd__fill_1
XFILLER_15_66 VGND VGND VPWR VPWR sky130_fd_sc_hd__fill_1
XANTENNA_mux_bottom_track_3.mux_l1_in_1__A1 bottom_left_grid_pin_42_ VGND VGND VPWR
+ VPWR sky130_fd_sc_hd__diode_2
Xmux_left_track_15.mux_l3_in_0_ mux_left_track_15.mux_l2_in_1_/X mux_left_track_15.mux_l2_in_0_/X
+ mux_left_track_15.mux_l3_in_0_/S VGND VGND VPWR VPWR mux_left_track_15.mux_l3_in_0_/X
+ sky130_fd_sc_hd__mux2_1
XTAP_102 VGND VPWR sky130_fd_sc_hd__tapvpwrvgnd_1
XTAP_113 VGND VPWR sky130_fd_sc_hd__tapvpwrvgnd_1
Xmux_left_track_25.sky130_fd_sc_hd__buf_4_0_ mux_left_track_25.mux_l2_in_0_/X VGND
+ VGND VPWR VPWR _078_/A sky130_fd_sc_hd__buf_4
Xmux_top_track_0.mux_l2_in_3_ _048_/HI chanx_left_in[14] mux_top_track_0.mux_l2_in_3_/S
+ VGND VGND VPWR VPWR mux_top_track_0.mux_l2_in_3_/X sky130_fd_sc_hd__mux2_1
XTAP_124 VGND VPWR sky130_fd_sc_hd__tapvpwrvgnd_1
XTAP_135 VGND VPWR sky130_fd_sc_hd__tapvpwrvgnd_1
XTAP_146 VGND VPWR sky130_fd_sc_hd__tapvpwrvgnd_1
XTAP_157 VGND VPWR sky130_fd_sc_hd__tapvpwrvgnd_1
XTAP_168 VGND VPWR sky130_fd_sc_hd__tapvpwrvgnd_1
XTAP_179 VGND VPWR sky130_fd_sc_hd__tapvpwrvgnd_1
Xmem_bottom_track_3.sky130_fd_sc_hd__dfxtp_1_2_ prog_clk_0_FTB00/X mux_bottom_track_3.mux_l2_in_3_/S
+ VGND VGND VPWR VPWR mux_bottom_track_3.mux_l3_in_1_/S sky130_fd_sc_hd__dfxtp_1
XFILLER_13_113 VGND VGND VPWR VPWR sky130_fd_sc_hd__decap_4
XFILLER_10_138 VGND VGND VPWR VPWR sky130_fd_sc_hd__fill_2
Xmux_left_track_15.mux_l2_in_1_ _065_/HI left_bottom_grid_pin_37_ mux_left_track_15.mux_l2_in_1_/S
+ VGND VGND VPWR VPWR mux_left_track_15.mux_l2_in_1_/X sky130_fd_sc_hd__mux2_1
XANTENNA_mux_top_track_24.mux_l1_in_3__S mux_top_track_24.mux_l1_in_3_/S VGND VGND
+ VPWR VPWR sky130_fd_sc_hd__diode_2
Xmux_left_track_19.sky130_fd_sc_hd__buf_4_0_ mux_left_track_19.mux_l2_in_0_/X VGND
+ VGND VPWR VPWR _075_/A sky130_fd_sc_hd__buf_4
Xmux_left_track_7.mux_l3_in_0_ mux_left_track_7.mux_l2_in_1_/X mux_left_track_7.mux_l2_in_0_/X
+ mux_left_track_7.mux_l3_in_0_/S VGND VGND VPWR VPWR mux_left_track_7.mux_l3_in_0_/X
+ sky130_fd_sc_hd__mux2_1
XANTENNA_mux_bottom_track_1.mux_l2_in_2__A1 chanx_left_in[1] VGND VGND VPWR VPWR sky130_fd_sc_hd__diode_2
X_060_ VGND VGND VPWR VPWR _060_/HI _060_/LO sky130_fd_sc_hd__conb_1
XFILLER_3_3 VGND VPWR VPWR VGND sky130_ef_sc_hd__decap_12
XFILLER_2_123 VGND VGND VPWR VPWR sky130_fd_sc_hd__decap_6
Xmux_top_track_0.mux_l4_in_0_ mux_top_track_0.mux_l3_in_1_/X mux_top_track_0.mux_l3_in_0_/X
+ mux_top_track_0.mux_l4_in_0_/S VGND VGND VPWR VPWR mux_top_track_0.mux_l4_in_0_/X
+ sky130_fd_sc_hd__mux2_1
XFILLER_0_15 VGND VPWR VPWR VGND sky130_ef_sc_hd__decap_12
Xmem_bottom_track_9.sky130_fd_sc_hd__dfxtp_1_3_ prog_clk_0_FTB00/X mux_bottom_track_9.mux_l3_in_1_/S
+ VGND VGND VPWR VPWR mux_bottom_track_9.mux_l4_in_0_/S sky130_fd_sc_hd__dfxtp_1
XFILLER_0_37 VGND VGND VPWR VPWR sky130_fd_sc_hd__fill_1
XFILLER_9_57 VGND VGND VPWR VPWR sky130_fd_sc_hd__fill_1
XFILLER_9_79 VGND VGND VPWR VPWR sky130_fd_sc_hd__decap_8
XANTENNA_mem_left_track_3.sky130_fd_sc_hd__dfxtp_1_1__CLK prog_clk_0_FTB00/X VGND
+ VGND VPWR VPWR sky130_fd_sc_hd__diode_2
XFILLER_18_66 VGND VGND VPWR VPWR sky130_fd_sc_hd__fill_1
Xmux_left_track_7.mux_l2_in_1_ mux_left_track_7.mux_l1_in_3_/X mux_left_track_7.mux_l1_in_2_/X
+ mux_left_track_7.mux_l2_in_1_/S VGND VGND VPWR VPWR mux_left_track_7.mux_l2_in_1_/X
+ sky130_fd_sc_hd__mux2_1
X_043_ VGND VGND VPWR VPWR _043_/HI _043_/LO sky130_fd_sc_hd__conb_1
X_112_ chany_bottom_in[5] VGND VGND VPWR VPWR chany_top_out[6] sky130_fd_sc_hd__buf_2
Xmem_bottom_track_25.sky130_fd_sc_hd__dfxtp_1_0_ prog_clk_0_FTB00/X mux_bottom_track_17.mux_l3_in_0_/S
+ VGND VGND VPWR VPWR mux_bottom_track_25.mux_l1_in_2_/S sky130_fd_sc_hd__dfxtp_1
XFILLER_29_108 VGND VGND VPWR VPWR sky130_fd_sc_hd__fill_2
Xmux_top_track_0.mux_l3_in_1_ mux_top_track_0.mux_l2_in_3_/X mux_top_track_0.mux_l2_in_2_/X
+ mux_top_track_0.mux_l3_in_1_/S VGND VGND VPWR VPWR mux_top_track_0.mux_l3_in_1_/X
+ sky130_fd_sc_hd__mux2_1
XFILLER_20_12 VGND VPWR VPWR VGND sky130_ef_sc_hd__decap_12
XFILLER_20_89 VGND VGND VPWR VPWR sky130_fd_sc_hd__fill_1
XFILLER_28_141 VGND VPWR VPWR VGND sky130_ef_sc_hd__decap_12
XFILLER_6_25 VGND VGND VPWR VPWR sky130_fd_sc_hd__decap_3
Xmem_top_track_16.sky130_fd_sc_hd__dfxtp_1_2_ prog_clk_0_FTB00/X mux_top_track_16.mux_l2_in_1_/S
+ VGND VGND VPWR VPWR mux_top_track_16.mux_l3_in_0_/S sky130_fd_sc_hd__dfxtp_1
Xmem_left_track_35.sky130_fd_sc_hd__dfxtp_1_0_ prog_clk_0_FTB00/X mux_left_track_33.mux_l2_in_0_/S
+ VGND VGND VPWR VPWR mux_left_track_35.mux_l1_in_0_/S sky130_fd_sc_hd__dfxtp_1
Xmux_left_track_7.mux_l1_in_2_ left_bottom_grid_pin_39_ left_bottom_grid_pin_37_ mux_left_track_7.mux_l1_in_3_/S
+ VGND VGND VPWR VPWR mux_left_track_7.mux_l1_in_2_/X sky130_fd_sc_hd__mux2_1
XFILLER_15_23 VGND VGND VPWR VPWR sky130_fd_sc_hd__decap_6
XFILLER_25_166 VGND VGND VPWR VPWR sky130_fd_sc_hd__fill_2
XFILLER_31_55 VGND VGND VPWR VPWR sky130_fd_sc_hd__fill_1
XFILLER_0_221 VGND VGND VPWR VPWR sky130_fd_sc_hd__fill_2
XFILLER_31_147 VGND VPWR VPWR VGND sky130_ef_sc_hd__decap_12
XFILLER_31_169 VGND VPWR VPWR VGND sky130_ef_sc_hd__decap_12
XTAP_103 VGND VPWR sky130_fd_sc_hd__tapvpwrvgnd_1
Xmux_top_track_0.mux_l2_in_2_ chanx_left_in[7] chanx_left_in[0] mux_top_track_0.mux_l2_in_3_/S
+ VGND VGND VPWR VPWR mux_top_track_0.mux_l2_in_2_/X sky130_fd_sc_hd__mux2_1
XTAP_114 VGND VPWR sky130_fd_sc_hd__tapvpwrvgnd_1
XTAP_125 VGND VPWR sky130_fd_sc_hd__tapvpwrvgnd_1
XTAP_136 VGND VPWR sky130_fd_sc_hd__tapvpwrvgnd_1
XTAP_147 VGND VPWR sky130_fd_sc_hd__tapvpwrvgnd_1
XTAP_158 VGND VPWR sky130_fd_sc_hd__tapvpwrvgnd_1
XTAP_169 VGND VPWR sky130_fd_sc_hd__tapvpwrvgnd_1
Xmem_bottom_track_3.sky130_fd_sc_hd__dfxtp_1_1_ prog_clk_0_FTB00/X mux_bottom_track_3.mux_l1_in_1_/S
+ VGND VGND VPWR VPWR mux_bottom_track_3.mux_l2_in_3_/S sky130_fd_sc_hd__dfxtp_1
XFILLER_3_15 VGND VPWR VPWR VGND sky130_ef_sc_hd__decap_12
XANTENNA_mux_left_track_3.mux_l1_in_0__S mux_left_track_3.mux_l1_in_3_/S VGND VGND
+ VPWR VPWR sky130_fd_sc_hd__diode_2
Xmux_left_track_15.mux_l2_in_0_ chany_bottom_in[19] mux_left_track_15.mux_l1_in_0_/X
+ mux_left_track_15.mux_l2_in_1_/S VGND VGND VPWR VPWR mux_left_track_15.mux_l2_in_0_/X
+ sky130_fd_sc_hd__mux2_1
XFILLER_5_110 VGND VGND VPWR VPWR sky130_fd_sc_hd__fill_2
XFILLER_5_176 VGND VPWR VPWR VGND sky130_ef_sc_hd__decap_12
XANTENNA_mux_top_track_2.mux_l2_in_0__A0 top_left_grid_pin_47_ VGND VGND VPWR VPWR
+ sky130_fd_sc_hd__diode_2
XFILLER_23_12 VGND VGND VPWR VPWR sky130_fd_sc_hd__fill_2
Xprog_clk_0_FTB00 prog_clk_0_N_in VGND VGND VPWR VPWR prog_clk_0_FTB00/X sky130_fd_sc_hd__buf_8
XFILLER_2_179 VGND VGND VPWR VPWR sky130_fd_sc_hd__decap_8
XFILLER_0_27 VGND VGND VPWR VPWR sky130_fd_sc_hd__fill_1
Xmem_bottom_track_9.sky130_fd_sc_hd__dfxtp_1_2_ prog_clk_0_FTB00/X mux_bottom_track_9.mux_l2_in_3_/S
+ VGND VGND VPWR VPWR mux_bottom_track_9.mux_l3_in_1_/S sky130_fd_sc_hd__dfxtp_1
XFILLER_29_3 VGND VGND VPWR VPWR sky130_fd_sc_hd__decap_6
XANTENNA_mux_top_track_0.mux_l2_in_2__A0 chanx_left_in[7] VGND VGND VPWR VPWR sky130_fd_sc_hd__diode_2
XFILLER_18_12 VGND VPWR VPWR VGND sky130_ef_sc_hd__decap_12
XFILLER_18_78 VGND VGND VPWR VPWR sky130_fd_sc_hd__fill_1
XFILLER_7_205 VGND VPWR VPWR VGND sky130_ef_sc_hd__decap_12
XANTENNA_mux_bottom_track_5.mux_l1_in_2__A0 bottom_left_grid_pin_44_ VGND VGND VPWR
+ VPWR sky130_fd_sc_hd__diode_2
Xmux_left_track_7.mux_l2_in_0_ mux_left_track_7.mux_l1_in_1_/X mux_left_track_7.mux_l1_in_0_/X
+ mux_left_track_7.mux_l2_in_1_/S VGND VGND VPWR VPWR mux_left_track_7.mux_l2_in_0_/X
+ sky130_fd_sc_hd__mux2_1
X_042_ VGND VGND VPWR VPWR _042_/HI _042_/LO sky130_fd_sc_hd__conb_1
X_111_ chany_bottom_in[4] VGND VGND VPWR VPWR chany_top_out[5] sky130_fd_sc_hd__buf_2
XANTENNA_mem_left_track_25.sky130_fd_sc_hd__dfxtp_1_0__CLK prog_clk_0_FTB00/X VGND
+ VGND VPWR VPWR sky130_fd_sc_hd__diode_2
Xmux_top_track_0.mux_l3_in_0_ mux_top_track_0.mux_l2_in_1_/X mux_top_track_0.mux_l2_in_0_/X
+ mux_top_track_0.mux_l3_in_1_/S VGND VGND VPWR VPWR mux_top_track_0.mux_l3_in_0_/X
+ sky130_fd_sc_hd__mux2_1
XFILLER_20_24 VGND VGND VPWR VPWR sky130_fd_sc_hd__decap_4
XFILLER_28_153 VGND VPWR VPWR VGND sky130_ef_sc_hd__decap_12
XFILLER_28_197 VGND VGND VPWR VPWR sky130_fd_sc_hd__decap_4
XFILLER_29_55 VGND VGND VPWR VPWR sky130_fd_sc_hd__fill_1
XFILLER_20_7 VGND VGND VPWR VPWR sky130_fd_sc_hd__fill_1
Xmem_top_track_16.sky130_fd_sc_hd__dfxtp_1_1_ prog_clk_0_FTB00/X mux_top_track_16.mux_l1_in_3_/S
+ VGND VGND VPWR VPWR mux_top_track_16.mux_l2_in_1_/S sky130_fd_sc_hd__dfxtp_1
XANTENNA_mux_left_track_3.mux_l1_in_3__S mux_left_track_3.mux_l1_in_3_/S VGND VGND
+ VPWR VPWR sky130_fd_sc_hd__diode_2
Xmux_left_track_7.mux_l1_in_1_ left_bottom_grid_pin_35_ chany_bottom_in[6] mux_left_track_7.mux_l1_in_3_/S
+ VGND VGND VPWR VPWR mux_left_track_7.mux_l1_in_1_/X sky130_fd_sc_hd__mux2_1
XANTENNA_mem_left_track_39.sky130_fd_sc_hd__dfxtp_1_1__CLK prog_clk_0_FTB00/X VGND
+ VGND VPWR VPWR sky130_fd_sc_hd__diode_2
XFILLER_31_159 VGND VGND VPWR VPWR sky130_fd_sc_hd__decap_8
XTAP_104 VGND VPWR sky130_fd_sc_hd__tapvpwrvgnd_1
XTAP_115 VGND VPWR sky130_fd_sc_hd__tapvpwrvgnd_1
XTAP_126 VGND VPWR sky130_fd_sc_hd__tapvpwrvgnd_1
XTAP_137 VGND VPWR sky130_fd_sc_hd__tapvpwrvgnd_1
XTAP_148 VGND VPWR sky130_fd_sc_hd__tapvpwrvgnd_1
Xmux_top_track_0.mux_l2_in_1_ chany_bottom_in[12] mux_top_track_0.mux_l1_in_2_/X mux_top_track_0.mux_l2_in_3_/S
+ VGND VGND VPWR VPWR mux_top_track_0.mux_l2_in_1_/X sky130_fd_sc_hd__mux2_1
XFILLER_11_3 VGND VGND VPWR VPWR sky130_fd_sc_hd__fill_1
XANTENNA_mem_left_track_17.sky130_fd_sc_hd__dfxtp_1_1__CLK prog_clk_0_FTB00/X VGND
+ VGND VPWR VPWR sky130_fd_sc_hd__diode_2
XTAP_159 VGND VPWR sky130_fd_sc_hd__tapvpwrvgnd_1
Xmem_bottom_track_3.sky130_fd_sc_hd__dfxtp_1_0_ prog_clk_0_FTB00/X mux_bottom_track_1.mux_l4_in_0_/S
+ VGND VGND VPWR VPWR mux_bottom_track_3.mux_l1_in_1_/S sky130_fd_sc_hd__dfxtp_1
XANTENNA_mux_left_track_11.mux_l2_in_0__A0 chany_bottom_in[11] VGND VGND VPWR VPWR
+ sky130_fd_sc_hd__diode_2
XANTENNA_mux_left_track_1.mux_l1_in_1__A0 left_bottom_grid_pin_34_ VGND VGND VPWR
+ VPWR sky130_fd_sc_hd__diode_2
XFILLER_3_27 VGND VPWR VPWR VGND sky130_ef_sc_hd__decap_12
XFILLER_8_152 VGND VPWR VPWR VGND sky130_ef_sc_hd__decap_12
XFILLER_12_36 VGND VGND VPWR VPWR sky130_fd_sc_hd__fill_1
Xmux_top_track_0.mux_l1_in_2_ chany_bottom_in[2] top_right_grid_pin_1_ mux_top_track_0.mux_l1_in_2_/S
+ VGND VGND VPWR VPWR mux_top_track_0.mux_l1_in_2_/X sky130_fd_sc_hd__mux2_1
XFILLER_5_188 VGND VPWR VPWR VGND sky130_ef_sc_hd__decap_12
XFILLER_5_166 VGND VGND VPWR VPWR sky130_fd_sc_hd__fill_2
Xmux_top_track_16.sky130_fd_sc_hd__buf_4_0_ mux_top_track_16.mux_l3_in_0_/X VGND VGND
+ VPWR VPWR _114_/A sky130_fd_sc_hd__buf_4
XFILLER_23_57 VGND VGND VPWR VPWR sky130_fd_sc_hd__decap_4
XFILLER_2_169 VGND VGND VPWR VPWR sky130_fd_sc_hd__decap_6
Xmem_bottom_track_9.sky130_fd_sc_hd__dfxtp_1_1_ prog_clk_0_FTB00/X mux_bottom_track_9.mux_l1_in_0_/S
+ VGND VGND VPWR VPWR mux_bottom_track_9.mux_l2_in_3_/S sky130_fd_sc_hd__dfxtp_1
XANTENNA_mux_top_track_0.mux_l2_in_2__A1 chanx_left_in[0] VGND VGND VPWR VPWR sky130_fd_sc_hd__diode_2
Xmux_left_track_15.mux_l1_in_0_ chany_bottom_in[12] chany_top_in[12] mux_left_track_15.mux_l1_in_0_/S
+ VGND VGND VPWR VPWR mux_left_track_15.mux_l1_in_0_/X sky130_fd_sc_hd__mux2_1
XFILLER_18_24 VGND VGND VPWR VPWR sky130_fd_sc_hd__decap_4
X_110_ _110_/A VGND VGND VPWR VPWR chany_top_out[4] sky130_fd_sc_hd__buf_2
XFILLER_7_217 VGND VGND VPWR VPWR sky130_fd_sc_hd__decap_6
XANTENNA_mux_bottom_track_5.mux_l1_in_2__A1 bottom_left_grid_pin_43_ VGND VGND VPWR
+ VPWR sky130_fd_sc_hd__diode_2
X_041_ VGND VGND VPWR VPWR _041_/HI _041_/LO sky130_fd_sc_hd__conb_1
XANTENNA_mem_top_track_4.sky130_fd_sc_hd__dfxtp_1_2__CLK prog_clk_0_FTB00/X VGND VGND
+ VPWR VPWR sky130_fd_sc_hd__diode_2
XFILLER_28_110 VGND VGND VPWR VPWR sky130_fd_sc_hd__decap_4
XFILLER_28_165 VGND VGND VPWR VPWR sky130_fd_sc_hd__fill_2
XFILLER_28_187 VGND VGND VPWR VPWR sky130_fd_sc_hd__decap_8
XFILLER_3_220 VGND VGND VPWR VPWR sky130_fd_sc_hd__decap_3
Xmem_top_track_16.sky130_fd_sc_hd__dfxtp_1_0_ prog_clk_0_FTB00/X mux_top_track_8.mux_l4_in_0_/S
+ VGND VGND VPWR VPWR mux_top_track_16.mux_l1_in_3_/S sky130_fd_sc_hd__dfxtp_1
Xmux_bottom_track_9.mux_l2_in_3_ _061_/HI chanx_left_in[18] mux_bottom_track_9.mux_l2_in_3_/S
+ VGND VGND VPWR VPWR mux_bottom_track_9.mux_l2_in_3_/X sky130_fd_sc_hd__mux2_1
XFILLER_19_121 VGND VGND VPWR VPWR sky130_fd_sc_hd__decap_3
Xmux_left_track_7.mux_l1_in_0_ chany_bottom_in[3] chany_top_in[6] mux_left_track_7.mux_l1_in_3_/S
+ VGND VGND VPWR VPWR mux_left_track_7.mux_l1_in_0_/X sky130_fd_sc_hd__mux2_1
Xmux_top_track_0.sky130_fd_sc_hd__buf_4_0_ mux_top_track_0.mux_l4_in_0_/X VGND VGND
+ VPWR VPWR _106_/A sky130_fd_sc_hd__buf_4
XFILLER_31_57 VGND VPWR VPWR VGND sky130_ef_sc_hd__decap_12
XTAP_105 VGND VPWR sky130_fd_sc_hd__tapvpwrvgnd_1
XTAP_116 VGND VPWR sky130_fd_sc_hd__tapvpwrvgnd_1
XTAP_127 VGND VPWR sky130_fd_sc_hd__tapvpwrvgnd_1
XTAP_138 VGND VPWR sky130_fd_sc_hd__tapvpwrvgnd_1
XTAP_149 VGND VPWR sky130_fd_sc_hd__tapvpwrvgnd_1
Xmux_top_track_0.mux_l2_in_0_ mux_top_track_0.mux_l1_in_1_/X mux_top_track_0.mux_l1_in_0_/X
+ mux_top_track_0.mux_l2_in_3_/S VGND VGND VPWR VPWR mux_top_track_0.mux_l2_in_0_/X
+ sky130_fd_sc_hd__mux2_1
XFILLER_22_105 VGND VPWR VPWR VGND sky130_ef_sc_hd__decap_12
XFILLER_22_138 VGND VGND VPWR VPWR sky130_fd_sc_hd__fill_2
XFILLER_7_92 VGND VGND VPWR VPWR sky130_fd_sc_hd__fill_1
XANTENNA_mux_left_track_1.mux_l1_in_1__A1 chany_bottom_in[2] VGND VGND VPWR VPWR sky130_fd_sc_hd__diode_2
XANTENNA_mux_bottom_track_3.mux_l2_in_3__A1 chanx_left_in[16] VGND VGND VPWR VPWR
+ sky130_fd_sc_hd__diode_2
XFILLER_3_39 VGND VGND VPWR VPWR sky130_fd_sc_hd__decap_8
XANTENNA_mux_bottom_track_5.mux_l1_in_2__S mux_bottom_track_5.mux_l1_in_6_/S VGND
+ VGND VPWR VPWR sky130_fd_sc_hd__diode_2
XFILLER_8_164 VGND VPWR VPWR VGND sky130_ef_sc_hd__decap_12
XFILLER_8_197 VGND VPWR VPWR VGND sky130_ef_sc_hd__decap_12
XANTENNA_mux_bottom_track_9.mux_l2_in_0__S mux_bottom_track_9.mux_l2_in_3_/S VGND
+ VGND VPWR VPWR sky130_fd_sc_hd__diode_2
Xmux_bottom_track_9.mux_l4_in_0_ mux_bottom_track_9.mux_l3_in_1_/X mux_bottom_track_9.mux_l3_in_0_/X
+ mux_bottom_track_9.mux_l4_in_0_/S VGND VGND VPWR VPWR mux_bottom_track_9.mux_l4_in_0_/X
+ sky130_fd_sc_hd__mux2_1
Xmux_top_track_0.mux_l1_in_1_ top_left_grid_pin_48_ top_left_grid_pin_46_ mux_top_track_0.mux_l1_in_2_/S
+ VGND VGND VPWR VPWR mux_top_track_0.mux_l1_in_1_/X sky130_fd_sc_hd__mux2_1
XANTENNA_mux_bottom_track_17.mux_l1_in_0__A0 chany_top_in[17] VGND VGND VPWR VPWR
+ sky130_fd_sc_hd__diode_2
Xmem_left_track_21.sky130_fd_sc_hd__dfxtp_1_1_ prog_clk_0_FTB00/X mux_left_track_21.mux_l1_in_1_/S
+ VGND VGND VPWR VPWR mux_left_track_21.mux_l2_in_0_/S sky130_fd_sc_hd__dfxtp_1
XANTENNA_mux_bottom_track_17.mux_l1_in_1__S mux_bottom_track_17.mux_l1_in_3_/S VGND
+ VGND VPWR VPWR sky130_fd_sc_hd__diode_2
XANTENNA__091__A chany_top_in[4] VGND VGND VPWR VPWR sky130_fd_sc_hd__diode_2
Xmem_bottom_track_9.sky130_fd_sc_hd__dfxtp_1_0_ prog_clk_0_FTB00/X mux_bottom_track_5.mux_l4_in_0_/S
+ VGND VGND VPWR VPWR mux_bottom_track_9.mux_l1_in_0_/S sky130_fd_sc_hd__dfxtp_1
XFILLER_0_29 VGND VGND VPWR VPWR sky130_fd_sc_hd__decap_8
XFILLER_14_222 VGND VGND VPWR VPWR sky130_fd_sc_hd__fill_1
XFILLER_1_181 VGND VGND VPWR VPWR sky130_fd_sc_hd__fill_1
Xmux_bottom_track_9.mux_l3_in_1_ mux_bottom_track_9.mux_l2_in_3_/X mux_bottom_track_9.mux_l2_in_2_/X
+ mux_bottom_track_9.mux_l3_in_1_/S VGND VGND VPWR VPWR mux_bottom_track_9.mux_l3_in_1_/X
+ sky130_fd_sc_hd__mux2_1
XFILLER_20_203 VGND VGND VPWR VPWR sky130_fd_sc_hd__fill_1
Xmem_bottom_track_17.sky130_fd_sc_hd__dfxtp_1_2_ prog_clk_0_FTB00/X mux_bottom_track_17.mux_l2_in_1_/S
+ VGND VGND VPWR VPWR mux_bottom_track_17.mux_l3_in_0_/S sky130_fd_sc_hd__dfxtp_1
XFILLER_18_47 VGND VGND VPWR VPWR sky130_fd_sc_hd__fill_2
XFILLER_18_58 VGND VGND VPWR VPWR sky130_fd_sc_hd__decap_8
XFILLER_1_3 VGND VPWR VPWR VGND sky130_ef_sc_hd__decap_12
XANTENNA_mem_bottom_track_33.sky130_fd_sc_hd__dfxtp_1_0__CLK prog_clk_0_FTB00/X VGND
+ VGND VPWR VPWR sky130_fd_sc_hd__diode_2
X_040_ VGND VGND VPWR VPWR _040_/HI _040_/LO sky130_fd_sc_hd__conb_1
XANTENNA_mem_left_track_7.sky130_fd_sc_hd__dfxtp_1_1__CLK prog_clk_0_FTB00/X VGND
+ VGND VPWR VPWR sky130_fd_sc_hd__diode_2
XANTENNA_mux_top_track_4.mux_l1_in_2__A0 top_left_grid_pin_47_ VGND VGND VPWR VPWR
+ sky130_fd_sc_hd__diode_2
XFILLER_29_57 VGND VPWR VPWR VGND sky130_ef_sc_hd__decap_12
XFILLER_6_17 VGND VGND VPWR VPWR sky130_fd_sc_hd__decap_8
XANTENNA_mux_bottom_track_5.mux_l1_in_5__S mux_bottom_track_5.mux_l1_in_6_/S VGND
+ VGND VPWR VPWR sky130_fd_sc_hd__diode_2
Xmux_bottom_track_9.mux_l2_in_2_ chanx_left_in[11] chanx_left_in[4] mux_bottom_track_9.mux_l2_in_3_/S
+ VGND VGND VPWR VPWR mux_bottom_track_9.mux_l2_in_2_/X sky130_fd_sc_hd__mux2_1
XFILLER_19_90 VGND VGND VPWR VPWR sky130_fd_sc_hd__decap_6
XFILLER_19_111 VGND VGND VPWR VPWR sky130_fd_sc_hd__fill_1
XFILLER_15_15 VGND VGND VPWR VPWR sky130_fd_sc_hd__decap_4
XFILLER_25_158 VGND VGND VPWR VPWR sky130_fd_sc_hd__decap_8
XFILLER_25_169 VGND VPWR VPWR VGND sky130_ef_sc_hd__decap_12
XANTENNA_mux_bottom_track_9.mux_l2_in_3__S mux_bottom_track_9.mux_l2_in_3_/S VGND
+ VGND VPWR VPWR sky130_fd_sc_hd__diode_2
XANTENNA_mem_bottom_track_25.sky130_fd_sc_hd__dfxtp_1_1__CLK prog_clk_0_FTB00/X VGND
+ VGND VPWR VPWR sky130_fd_sc_hd__diode_2
XFILLER_31_69 VGND VGND VPWR VPWR sky130_fd_sc_hd__decap_6
Xmux_left_track_39.mux_l2_in_0_ _044_/HI mux_left_track_39.mux_l1_in_0_/X ccff_tail
+ VGND VGND VPWR VPWR mux_left_track_39.mux_l2_in_0_/X sky130_fd_sc_hd__mux2_1
XTAP_106 VGND VPWR sky130_fd_sc_hd__tapvpwrvgnd_1
XTAP_117 VGND VPWR sky130_fd_sc_hd__tapvpwrvgnd_1
XTAP_128 VGND VPWR sky130_fd_sc_hd__tapvpwrvgnd_1
XTAP_139 VGND VPWR sky130_fd_sc_hd__tapvpwrvgnd_1
XPHY_0 VGND VGND VPWR VPWR sky130_fd_sc_hd__decap_3
XFILLER_22_117 VGND VGND VPWR VPWR sky130_fd_sc_hd__decap_3
Xmux_bottom_track_33.sky130_fd_sc_hd__buf_4_0_ mux_bottom_track_33.mux_l3_in_0_/X
+ VGND VGND VPWR VPWR _102_/A sky130_fd_sc_hd__buf_4
XFILLER_13_117 VGND VGND VPWR VPWR sky130_fd_sc_hd__fill_1
XANTENNA_mux_bottom_track_25.mux_l1_in_0__A0 chany_top_in[18] VGND VGND VPWR VPWR