* NGSPICE file created from tile.ext - technology: sky130A

* Black-box entry subcircuit for sky130_fd_sc_hd__tapvpwrvgnd_1 abstract view
.subckt sky130_fd_sc_hd__tapvpwrvgnd_1 VGND VPWR
.ends

* Black-box entry subcircuit for sky130_fd_sc_hd__fill_2 abstract view
.subckt sky130_fd_sc_hd__fill_2 VGND VNB VPB VPWR
.ends

* Black-box entry subcircuit for sky130_fd_sc_hd__decap_3 abstract view
.subckt sky130_fd_sc_hd__decap_3 VGND VNB VPB VPWR
.ends

* Black-box entry subcircuit for sky130_fd_sc_hd__mux2_1 abstract view
.subckt sky130_fd_sc_hd__mux2_1 A0 A1 S VGND VNB VPB VPWR X
.ends

* Black-box entry subcircuit for sky130_fd_sc_hd__decap_6 abstract view
.subckt sky130_fd_sc_hd__decap_6 VGND VNB VPB VPWR
.ends

* Black-box entry subcircuit for sky130_fd_sc_hd__fill_1 abstract view
.subckt sky130_fd_sc_hd__fill_1 VGND VNB VPB VPWR
.ends

* Black-box entry subcircuit for sky130_fd_sc_hd__dfrtp_1 abstract view
.subckt sky130_fd_sc_hd__dfrtp_1 CLK D RESET_B VGND VNB VPB VPWR Q
.ends

* Black-box entry subcircuit for sky130_fd_sc_hd__clkbuf_16 abstract view
.subckt sky130_fd_sc_hd__clkbuf_16 A VGND VNB VPB VPWR X
.ends

* Black-box entry subcircuit for sky130_ef_sc_hd__decap_12 abstract view
.subckt sky130_ef_sc_hd__decap_12 VGND VNB VPB VPWR
.ends

* Black-box entry subcircuit for sky130_fd_sc_hd__decap_8 abstract view
.subckt sky130_fd_sc_hd__decap_8 VGND VNB VPB VPWR
.ends

* Black-box entry subcircuit for sky130_fd_sc_hd__clkbuf_2 abstract view
.subckt sky130_fd_sc_hd__clkbuf_2 A VGND VNB VPB VPWR X
.ends

* Black-box entry subcircuit for sky130_fd_sc_hd__clkbuf_1 abstract view
.subckt sky130_fd_sc_hd__clkbuf_1 A VGND VNB VPB VPWR X
.ends

* Black-box entry subcircuit for sky130_fd_sc_hd__decap_4 abstract view
.subckt sky130_fd_sc_hd__decap_4 VGND VNB VPB VPWR
.ends

* Black-box entry subcircuit for sky130_fd_sc_hd__dfrtp_2 abstract view
.subckt sky130_fd_sc_hd__dfrtp_2 CLK D RESET_B VGND VNB VPB VPWR Q
.ends

* Black-box entry subcircuit for sky130_fd_sc_hd__dfrtp_4 abstract view
.subckt sky130_fd_sc_hd__dfrtp_4 CLK D RESET_B VGND VNB VPB VPWR Q
.ends

* Black-box entry subcircuit for sky130_fd_sc_hd__conb_1 abstract view
.subckt sky130_fd_sc_hd__conb_1 VGND VNB VPB VPWR HI LO
.ends

* Black-box entry subcircuit for sky130_fd_sc_hd__buf_12 abstract view
.subckt sky130_fd_sc_hd__buf_12 A VGND VNB VPB VPWR X
.ends

* Black-box entry subcircuit for sky130_fd_sc_hd__sdfrtp_1 abstract view
.subckt sky130_fd_sc_hd__sdfrtp_1 CLK D RESET_B SCD SCE VGND VNB VPB VPWR Q
.ends

* Black-box entry subcircuit for sky130_fd_sc_hd__clkbuf_4 abstract view
.subckt sky130_fd_sc_hd__clkbuf_4 A VGND VNB VPB VPWR X
.ends

* Black-box entry subcircuit for sky130_fd_sc_hd__diode_2 abstract view
.subckt sky130_fd_sc_hd__diode_2 DIODE VGND VNB VPB VPWR
.ends

* Black-box entry subcircuit for sky130_fd_sc_hd__buf_2 abstract view
.subckt sky130_fd_sc_hd__buf_2 A VGND VNB VPB VPWR X
.ends

* Black-box entry subcircuit for sky130_fd_sc_hd__dlymetal6s2s_1 abstract view
.subckt sky130_fd_sc_hd__dlymetal6s2s_1 A VGND VNB VPB VPWR X
.ends

* Black-box entry subcircuit for sky130_fd_sc_hd__buf_4 abstract view
.subckt sky130_fd_sc_hd__buf_4 A VGND VNB VPB VPWR X
.ends

* Black-box entry subcircuit for sky130_fd_sc_hd__mux2_4 abstract view
.subckt sky130_fd_sc_hd__mux2_4 A0 A1 S VGND VNB VPB VPWR X
.ends

* Black-box entry subcircuit for sky130_fd_sc_hd__mux2_2 abstract view
.subckt sky130_fd_sc_hd__mux2_2 A0 A1 S VGND VNB VPB VPWR X
.ends

* Black-box entry subcircuit for sky130_fd_sc_hd__or2_1 abstract view
.subckt sky130_fd_sc_hd__or2_1 A B VGND VNB VPB VPWR X
.ends

* Black-box entry subcircuit for sky130_fd_sc_hd__sdfrtp_2 abstract view
.subckt sky130_fd_sc_hd__sdfrtp_2 CLK D RESET_B SCD SCE VGND VNB VPB VPWR Q
.ends

* Black-box entry subcircuit for sky130_fd_sc_hd__clkdlybuf4s25_1 abstract view
.subckt sky130_fd_sc_hd__clkdlybuf4s25_1 A VGND VNB VPB VPWR X
.ends

.subckt tile VGND VPWR bottom_width_0_height_0_subtile_0__pin_cout_0_ bottom_width_0_height_0_subtile_0__pin_reg_out_0_
+ ccff_head_1 ccff_head_2 ccff_tail ccff_tail_0 chanx_left_in[0] chanx_left_in[10]
+ chanx_left_in[11] chanx_left_in[12] chanx_left_in[13] chanx_left_in[14] chanx_left_in[15]
+ chanx_left_in[16] chanx_left_in[17] chanx_left_in[18] chanx_left_in[19] chanx_left_in[1]
+ chanx_left_in[20] chanx_left_in[21] chanx_left_in[22] chanx_left_in[23] chanx_left_in[24]
+ chanx_left_in[25] chanx_left_in[26] chanx_left_in[27] chanx_left_in[28] chanx_left_in[29]
+ chanx_left_in[2] chanx_left_in[3] chanx_left_in[4] chanx_left_in[5] chanx_left_in[6]
+ chanx_left_in[7] chanx_left_in[8] chanx_left_in[9] chanx_left_out[0] chanx_left_out[10]
+ chanx_left_out[11] chanx_left_out[12] chanx_left_out[13] chanx_left_out[14] chanx_left_out[15]
+ chanx_left_out[16] chanx_left_out[17] chanx_left_out[18] chanx_left_out[19] chanx_left_out[1]
+ chanx_left_out[20] chanx_left_out[21] chanx_left_out[22] chanx_left_out[23] chanx_left_out[24]
+ chanx_left_out[25] chanx_left_out[26] chanx_left_out[27] chanx_left_out[28] chanx_left_out[29]
+ chanx_left_out[2] chanx_left_out[3] chanx_left_out[4] chanx_left_out[5] chanx_left_out[6]
+ chanx_left_out[7] chanx_left_out[8] chanx_left_out[9] chanx_right_in_0[0] chanx_right_in_0[10]
+ chanx_right_in_0[11] chanx_right_in_0[12] chanx_right_in_0[13] chanx_right_in_0[14]
+ chanx_right_in_0[15] chanx_right_in_0[16] chanx_right_in_0[17] chanx_right_in_0[18]
+ chanx_right_in_0[19] chanx_right_in_0[1] chanx_right_in_0[20] chanx_right_in_0[21]
+ chanx_right_in_0[22] chanx_right_in_0[23] chanx_right_in_0[24] chanx_right_in_0[25]
+ chanx_right_in_0[26] chanx_right_in_0[27] chanx_right_in_0[28] chanx_right_in_0[29]
+ chanx_right_in_0[2] chanx_right_in_0[3] chanx_right_in_0[4] chanx_right_in_0[5]
+ chanx_right_in_0[6] chanx_right_in_0[7] chanx_right_in_0[8] chanx_right_in_0[9]
+ chanx_right_out_0[0] chanx_right_out_0[10] chanx_right_out_0[11] chanx_right_out_0[12]
+ chanx_right_out_0[13] chanx_right_out_0[14] chanx_right_out_0[15] chanx_right_out_0[16]
+ chanx_right_out_0[17] chanx_right_out_0[18] chanx_right_out_0[19] chanx_right_out_0[1]
+ chanx_right_out_0[20] chanx_right_out_0[21] chanx_right_out_0[22] chanx_right_out_0[23]
+ chanx_right_out_0[24] chanx_right_out_0[25] chanx_right_out_0[26] chanx_right_out_0[27]
+ chanx_right_out_0[28] chanx_right_out_0[29] chanx_right_out_0[2] chanx_right_out_0[3]
+ chanx_right_out_0[4] chanx_right_out_0[5] chanx_right_out_0[6] chanx_right_out_0[7]
+ chanx_right_out_0[8] chanx_right_out_0[9] chany_bottom_in[0] chany_bottom_in[10]
+ chany_bottom_in[11] chany_bottom_in[12] chany_bottom_in[13] chany_bottom_in[14]
+ chany_bottom_in[15] chany_bottom_in[16] chany_bottom_in[17] chany_bottom_in[18]
+ chany_bottom_in[19] chany_bottom_in[1] chany_bottom_in[20] chany_bottom_in[21] chany_bottom_in[22]
+ chany_bottom_in[23] chany_bottom_in[24] chany_bottom_in[25] chany_bottom_in[26]
+ chany_bottom_in[27] chany_bottom_in[28] chany_bottom_in[29] chany_bottom_in[2] chany_bottom_in[3]
+ chany_bottom_in[4] chany_bottom_in[5] chany_bottom_in[6] chany_bottom_in[7] chany_bottom_in[8]
+ chany_bottom_in[9] chany_bottom_out[0] chany_bottom_out[10] chany_bottom_out[11]
+ chany_bottom_out[12] chany_bottom_out[13] chany_bottom_out[14] chany_bottom_out[15]
+ chany_bottom_out[16] chany_bottom_out[17] chany_bottom_out[18] chany_bottom_out[19]
+ chany_bottom_out[1] chany_bottom_out[20] chany_bottom_out[21] chany_bottom_out[22]
+ chany_bottom_out[23] chany_bottom_out[24] chany_bottom_out[25] chany_bottom_out[26]
+ chany_bottom_out[27] chany_bottom_out[28] chany_bottom_out[29] chany_bottom_out[2]
+ chany_bottom_out[3] chany_bottom_out[4] chany_bottom_out[5] chany_bottom_out[6]
+ chany_bottom_out[7] chany_bottom_out[8] chany_bottom_out[9] chany_top_in_0[0] chany_top_in_0[10]
+ chany_top_in_0[11] chany_top_in_0[12] chany_top_in_0[13] chany_top_in_0[14] chany_top_in_0[15]
+ chany_top_in_0[16] chany_top_in_0[17] chany_top_in_0[18] chany_top_in_0[19] chany_top_in_0[1]
+ chany_top_in_0[20] chany_top_in_0[21] chany_top_in_0[22] chany_top_in_0[23] chany_top_in_0[24]
+ chany_top_in_0[25] chany_top_in_0[26] chany_top_in_0[27] chany_top_in_0[28] chany_top_in_0[29]
+ chany_top_in_0[2] chany_top_in_0[3] chany_top_in_0[4] chany_top_in_0[5] chany_top_in_0[6]
+ chany_top_in_0[7] chany_top_in_0[8] chany_top_in_0[9] chany_top_out_0[0] chany_top_out_0[10]
+ chany_top_out_0[11] chany_top_out_0[12] chany_top_out_0[13] chany_top_out_0[14]
+ chany_top_out_0[15] chany_top_out_0[16] chany_top_out_0[17] chany_top_out_0[18]
+ chany_top_out_0[19] chany_top_out_0[1] chany_top_out_0[20] chany_top_out_0[21] chany_top_out_0[22]
+ chany_top_out_0[23] chany_top_out_0[24] chany_top_out_0[25] chany_top_out_0[26]
+ chany_top_out_0[27] chany_top_out_0[28] chany_top_out_0[29] chany_top_out_0[2] chany_top_out_0[3]
+ chany_top_out_0[4] chany_top_out_0[5] chany_top_out_0[6] chany_top_out_0[7] chany_top_out_0[8]
+ chany_top_out_0[9] clk0 prog_clk prog_reset_bottom_in prog_reset_bottom_out prog_reset_left_in
+ prog_reset_right_out prog_reset_top_in prog_reset_top_out reset_bottom_in reset_bottom_out
+ reset_left_out reset_right_in reset_top_in reset_top_out right_bottom_grid_top_width_0_height_0_subtile_0__pin_O_0_
+ right_bottom_grid_top_width_0_height_0_subtile_0__pin_O_1_ right_bottom_grid_top_width_0_height_0_subtile_0__pin_O_2_
+ right_bottom_grid_top_width_0_height_0_subtile_0__pin_O_3_ right_bottom_grid_top_width_0_height_0_subtile_0__pin_O_4_
+ right_bottom_grid_top_width_0_height_0_subtile_0__pin_O_5_ right_bottom_grid_top_width_0_height_0_subtile_0__pin_O_6_
+ right_bottom_grid_top_width_0_height_0_subtile_0__pin_O_7_ right_width_0_height_0_subtile_0__pin_O_10_
+ right_width_0_height_0_subtile_0__pin_O_11_ right_width_0_height_0_subtile_0__pin_O_12_
+ right_width_0_height_0_subtile_0__pin_O_13_ right_width_0_height_0_subtile_0__pin_O_14_
+ right_width_0_height_0_subtile_0__pin_O_15_ right_width_0_height_0_subtile_0__pin_O_8_
+ right_width_0_height_0_subtile_0__pin_O_9_ sc_in sc_out test_enable_bottom_in test_enable_bottom_out
+ test_enable_left_out test_enable_right_in test_enable_top_in test_enable_top_out
+ top_left_grid_right_width_0_height_0_subtile_0__pin_O_10_ top_left_grid_right_width_0_height_0_subtile_0__pin_O_11_
+ top_left_grid_right_width_0_height_0_subtile_0__pin_O_12_ top_left_grid_right_width_0_height_0_subtile_0__pin_O_13_
+ top_left_grid_right_width_0_height_0_subtile_0__pin_O_14_ top_left_grid_right_width_0_height_0_subtile_0__pin_O_15_
+ top_left_grid_right_width_0_height_0_subtile_0__pin_O_8_ top_left_grid_right_width_0_height_0_subtile_0__pin_O_9_
+ top_width_0_height_0_subtile_0__pin_O_0_ top_width_0_height_0_subtile_0__pin_O_1_
+ top_width_0_height_0_subtile_0__pin_O_2_ top_width_0_height_0_subtile_0__pin_O_3_
+ top_width_0_height_0_subtile_0__pin_O_4_ top_width_0_height_0_subtile_0__pin_O_5_
+ top_width_0_height_0_subtile_0__pin_O_6_ top_width_0_height_0_subtile_0__pin_O_7_
+ top_width_0_height_0_subtile_0__pin_cin_0_ top_width_0_height_0_subtile_0__pin_reg_in_0_
XTAP_199 VGND VPWR sky130_fd_sc_hd__tapvpwrvgnd_1
XFILLER_39_211 VGND VGND VPWR VPWR sky130_fd_sc_hd__fill_2
XFILLER_39_222 VGND VGND VPWR VPWR sky130_fd_sc_hd__fill_2
XFILLER_54_225 VGND VGND VPWR VPWR sky130_fd_sc_hd__decap_3
Xsb_1__1_.mux_left_track_37.mux_l1_in_1_ net68 net38 sb_1__1_.mem_left_track_37.mem_out\[0\]
+ VGND VGND VPWR VPWR sb_1__1_.mux_left_track_37.sky130_fd_sc_hd__mux2_1_1_X sky130_fd_sc_hd__mux2_1
XFILLER_22_133 VGND VGND VPWR VPWR sky130_fd_sc_hd__decap_6
XFILLER_35_494 VGND VGND VPWR VPWR sky130_fd_sc_hd__fill_1
XFILLER_52_29 VGND VGND VPWR VPWR sky130_fd_sc_hd__fill_2
XFILLER_50_475 VGND VGND VPWR VPWR sky130_fd_sc_hd__fill_1
Xcbx_1__1_.mux_top_ipin_2.mux_l1_in_0_ sb_1__1_.mux_left_track_5.out net22 cbx_1__1_.mem_top_ipin_2.mem_out\[0\]
+ VGND VGND VPWR VPWR cbx_1__1_.mux_top_ipin_2.sky130_fd_sc_hd__mux2_1_0_X sky130_fd_sc_hd__mux2_1
XFILLER_89_111 VGND VGND VPWR VPWR sky130_fd_sc_hd__fill_1
Xgrid_clb_1__1_.logical_tile_clb_mode_clb__0.logical_tile_clb_mode_default__fle_1.logical_tile_clb_mode_default__fle_mode_physical__fabric_0.logical_tile_clb_mode_default__fle_mode_physical__fabric_mode_default__frac_logic_0.mem_frac_logic_out_0.sky130_fd_sc_hd__dfrtp_1_1_
+ clknet_leaf_16_prog_clk grid_clb_1__1_.logical_tile_clb_mode_clb__0.logical_tile_clb_mode_default__fle_1.logical_tile_clb_mode_default__fle_mode_physical__fabric_0.logical_tile_clb_mode_default__fle_mode_physical__fabric_mode_default__frac_logic_0.mem_frac_logic_out_0.mem_out\[0\]
+ net296 VGND VGND VPWR VPWR grid_clb_1__1_.logical_tile_clb_mode_clb__0.logical_tile_clb_mode_default__fle_1.logical_tile_clb_mode_default__fle_mode_physical__fabric_0.logical_tile_clb_mode_default__fle_mode_physical__fabric_mode_default__frac_logic_0.mem_frac_logic_out_0.ccff_tail
+ sky130_fd_sc_hd__dfrtp_1
XFILLER_77_15 VGND VGND VPWR VPWR sky130_fd_sc_hd__fill_1
Xclkbuf_leaf_53_prog_clk clknet_3_3__leaf_prog_clk VGND VGND VPWR VPWR clknet_leaf_53_prog_clk
+ sky130_fd_sc_hd__clkbuf_16
XFILLER_89_166 VGND VGND VPWR VPWR sky130_fd_sc_hd__fill_2
XFILLER_58_520 VGND VGND VPWR VPWR sky130_fd_sc_hd__decap_6
XFILLER_92_309 VGND VGND VPWR VPWR sky130_ef_sc_hd__decap_12
Xcby_1__1_.mux_right_ipin_3.mux_l2_in_3_ net315 net116 cby_1__1_.mem_right_ipin_3.mem_out\[1\]
+ VGND VGND VPWR VPWR cby_1__1_.mux_right_ipin_3.sky130_fd_sc_hd__mux2_1_6_X sky130_fd_sc_hd__mux2_1
XFILLER_45_214 VGND VGND VPWR VPWR sky130_fd_sc_hd__decap_8
XFILLER_45_225 VGND VGND VPWR VPWR sky130_fd_sc_hd__fill_2
XFILLER_45_236 VGND VGND VPWR VPWR sky130_fd_sc_hd__decap_8
XFILLER_93_69 VGND VGND VPWR VPWR sky130_fd_sc_hd__fill_2
XFILLER_26_461 VGND VGND VPWR VPWR sky130_ef_sc_hd__decap_12
XFILLER_26_85 VGND VGND VPWR VPWR sky130_fd_sc_hd__fill_2
XFILLER_60_239 VGND VGND VPWR VPWR sky130_fd_sc_hd__fill_2
X_363_ net81 VGND VGND VPWR VPWR net256 sky130_fd_sc_hd__clkbuf_2
XFILLER_13_166 VGND VGND VPWR VPWR sky130_fd_sc_hd__fill_2
X_294_ net11 VGND VGND VPWR VPWR net186 sky130_fd_sc_hd__clkbuf_2
XFILLER_95_125 VGND VGND VPWR VPWR sky130_ef_sc_hd__decap_12
XFILLER_95_169 VGND VGND VPWR VPWR sky130_ef_sc_hd__decap_12
XFILLER_76_350 VGND VGND VPWR VPWR sky130_ef_sc_hd__decap_12
Xgrid_clb_1__1_.logical_tile_clb_mode_clb__0.logical_tile_clb_mode_default__fle_4.logical_tile_clb_mode_default__fle_mode_physical__fabric_0.logical_tile_clb_mode_default__fle_mode_physical__fabric_mode_default__frac_logic_0.logical_tile_clb_mode_default__fle_mode_physical__fabric_mode_default__frac_logic_mode_default__frac_lut4_0.frac_lut4_0_.frac_lut4_mux_0_.mux_l1_in_3_
+ grid_clb_1__1_.logical_tile_clb_mode_clb__0.logical_tile_clb_mode_default__fle_4.logical_tile_clb_mode_default__fle_mode_physical__fabric_0.logical_tile_clb_mode_default__fle_mode_physical__fabric_mode_default__frac_logic_0.logical_tile_clb_mode_default__fle_mode_physical__fabric_mode_default__frac_logic_mode_default__frac_lut4_0.frac_lut4_0_.frac_lut4_mux_0_.in\[7\]
+ grid_clb_1__1_.logical_tile_clb_mode_clb__0.logical_tile_clb_mode_default__fle_4.logical_tile_clb_mode_default__fle_mode_physical__fabric_0.logical_tile_clb_mode_default__fle_mode_physical__fabric_mode_default__frac_logic_0.logical_tile_clb_mode_default__fle_mode_physical__fabric_mode_default__frac_logic_mode_default__frac_lut4_0.frac_lut4_0_.frac_lut4_mux_0_.in\[6\]
+ grid_clb_1__1_.logical_tile_clb_mode_clb__0.logical_tile_clb_mode_default__fle_4.logical_tile_clb_mode_default__fle_mode_physical__fabric_0.logical_tile_clb_mode_default__fle_mode_physical__fabric_mode_default__frac_logic_0.logical_tile_clb_mode_default__fle_mode_physical__fabric_mode_default__frac_logic_mode_default__frac_lut4_0.frac_lut4_0_.sky130_fd_sc_hd__buf_2_0_X
+ VGND VGND VPWR VPWR grid_clb_1__1_.logical_tile_clb_mode_clb__0.logical_tile_clb_mode_default__fle_4.logical_tile_clb_mode_default__fle_mode_physical__fabric_0.logical_tile_clb_mode_default__fle_mode_physical__fabric_mode_default__frac_logic_0.logical_tile_clb_mode_default__fle_mode_physical__fabric_mode_default__frac_logic_mode_default__frac_lut4_0.frac_lut4_0_.frac_lut4_mux_0_.sky130_fd_sc_hd__mux2_1_3_X
+ sky130_fd_sc_hd__mux2_1
Xsb_1__1_.mux_right_track_10.mux_l4_in_0_ sb_1__1_.mux_right_track_10.sky130_fd_sc_hd__mux2_1_10_X
+ sb_1__1_.mux_right_track_10.sky130_fd_sc_hd__mux2_1_9_X sb_1__1_.mem_right_track_10.ccff_tail
+ VGND VGND VPWR VPWR sb_1__1_.mux_right_track_10.sky130_fd_sc_hd__mux2_1_11_X sky130_fd_sc_hd__mux2_1
Xsb_1__1_.mux_right_track_52.mux_l2_in_0_ sb_1__1_.mux_right_track_52.sky130_fd_sc_hd__mux2_1_1_X
+ sb_1__1_.mux_right_track_52.sky130_fd_sc_hd__mux2_1_0_X sb_1__1_.mem_right_track_52.mem_out\[1\]
+ VGND VGND VPWR VPWR sb_1__1_.mux_right_track_52.sky130_fd_sc_hd__mux2_1_3_X sky130_fd_sc_hd__mux2_1
XFILLER_83_80 VGND VGND VPWR VPWR sky130_fd_sc_hd__decap_8
Xcby_1__1_.mux_right_ipin_14.mux_l1_in_3_ sb_1__1_.mux_bottom_track_29.out net69 cby_1__1_.mem_right_ipin_14.mem_out\[0\]
+ VGND VGND VPWR VPWR cby_1__1_.mux_right_ipin_14.sky130_fd_sc_hd__mux2_1_3_X sky130_fd_sc_hd__mux2_1
Xcbx_1__1_.mux_top_ipin_13.mux_l2_in_2_ net14 net35 cbx_1__1_.mem_top_ipin_13.mem_out\[1\]
+ VGND VGND VPWR VPWR cbx_1__1_.mux_top_ipin_13.sky130_fd_sc_hd__mux2_1_5_X sky130_fd_sc_hd__mux2_1
Xcbx_1__1_.mux_top_ipin_4.sky130_fd_sc_hd__buf_4_0_ cbx_1__1_.mux_top_ipin_4.sky130_fd_sc_hd__mux2_1_11_X
+ VGND VGND VPWR VPWR cbx_1__1_.bottom_grid_top_width_0_height_0_subtile_0__pin_I1_0_
+ sky130_fd_sc_hd__clkbuf_1
Xsb_1__1_.mux_bottom_track_3.mux_l1_in_0_ net122 net108 sb_1__1_.mem_bottom_track_3.mem_out\[0\]
+ VGND VGND VPWR VPWR sb_1__1_.mux_bottom_track_3.sky130_fd_sc_hd__mux2_1_0_X sky130_fd_sc_hd__mux2_1
Xsb_1__1_.mux_left_track_3.mux_l2_in_0_ sb_1__1_.mux_left_track_3.sky130_fd_sc_hd__mux2_1_1_X
+ sb_1__1_.mux_left_track_3.sky130_fd_sc_hd__mux2_1_0_X sb_1__1_.mem_left_track_3.mem_out\[1\]
+ VGND VGND VPWR VPWR sb_1__1_.mux_left_track_3.sky130_fd_sc_hd__mux2_1_4_X sky130_fd_sc_hd__mux2_1
XFILLER_86_114 VGND VGND VPWR VPWR sky130_fd_sc_hd__decap_4
XFILLER_74_309 VGND VGND VPWR VPWR sky130_fd_sc_hd__fill_2
XFILLER_27_225 VGND VGND VPWR VPWR sky130_fd_sc_hd__decap_4
XFILLER_94_191 VGND VGND VPWR VPWR sky130_fd_sc_hd__decap_4
XFILLER_63_39 VGND VGND VPWR VPWR sky130_fd_sc_hd__decap_4
Xgrid_clb_1__1_.logical_tile_clb_mode_clb__0.logical_tile_clb_mode_default__fle_7.logical_tile_clb_mode_default__fle_mode_physical__fabric_0.logical_tile_clb_mode_default__fle_mode_physical__fabric_mode_default__frac_logic_0.logical_tile_clb_mode_default__fle_mode_physical__fabric_mode_default__frac_logic_mode_default__frac_lut4_0.frac_lut4_sky130_fd_sc_hd__dfrtp_1_mem.sky130_fd_sc_hd__dfrtp_1_13_
+ clknet_leaf_42_prog_clk grid_clb_1__1_.logical_tile_clb_mode_clb__0.logical_tile_clb_mode_default__fle_7.logical_tile_clb_mode_default__fle_mode_physical__fabric_0.logical_tile_clb_mode_default__fle_mode_physical__fabric_mode_default__frac_logic_0.logical_tile_clb_mode_default__fle_mode_physical__fabric_mode_default__frac_logic_mode_default__frac_lut4_0.frac_lut4_0_.frac_lut4_mux_0_.in\[12\]
+ net123 VGND VGND VPWR VPWR grid_clb_1__1_.logical_tile_clb_mode_clb__0.logical_tile_clb_mode_default__fle_7.logical_tile_clb_mode_default__fle_mode_physical__fabric_0.logical_tile_clb_mode_default__fle_mode_physical__fabric_mode_default__frac_logic_0.logical_tile_clb_mode_default__fle_mode_physical__fabric_mode_default__frac_logic_mode_default__frac_lut4_0.frac_lut4_0_.frac_lut4_mux_0_.in\[13\]
+ sky130_fd_sc_hd__dfrtp_1
XFILLER_12_21 VGND VGND VPWR VPWR sky130_fd_sc_hd__decap_6
XFILLER_6_107 VGND VGND VPWR VPWR sky130_fd_sc_hd__decap_6
Xsb_1__1_.mem_bottom_track_21.sky130_fd_sc_hd__dfrtp_1_0_ clknet_leaf_39_prog_clk
+ sb_1__1_.mem_bottom_track_13.ccff_tail net298 VGND VGND VPWR VPWR sb_1__1_.mem_bottom_track_21.mem_out\[0\]
+ sky130_fd_sc_hd__dfrtp_2
Xsb_1__1_.mem_left_track_3.sky130_fd_sc_hd__dfrtp_1_1_ clknet_leaf_19_prog_clk sb_1__1_.mem_left_track_3.mem_out\[0\]
+ net298 VGND VGND VPWR VPWR sb_1__1_.mem_left_track_3.mem_out\[1\] sky130_fd_sc_hd__dfrtp_4
XFILLER_77_125 VGND VGND VPWR VPWR sky130_fd_sc_hd__decap_4
XFILLER_77_169 VGND VGND VPWR VPWR sky130_fd_sc_hd__decap_3
XFILLER_85_191 VGND VGND VPWR VPWR sky130_fd_sc_hd__fill_2
XFILLER_37_73 VGND VGND VPWR VPWR sky130_ef_sc_hd__decap_12
XFILLER_14_431 VGND VGND VPWR VPWR sky130_ef_sc_hd__decap_12
XFILLER_26_280 VGND VGND VPWR VPWR sky130_fd_sc_hd__decap_8
X_346_ net92 VGND VGND VPWR VPWR net267 sky130_fd_sc_hd__clkbuf_2
X_277_ sb_1__1_.mux_left_track_1.out VGND VGND VPWR VPWR net170 sky130_fd_sc_hd__clkbuf_2
Xgrid_clb_1__1_.logical_tile_clb_mode_clb__0.logical_tile_clb_mode_default__fle_0.logical_tile_clb_mode_default__fle_mode_physical__fabric_0.mux_ff_0_D_0.mux_l1_in_0_
+ net144 grid_clb_1__1_.logical_tile_clb_mode_clb__0.logical_tile_clb_mode_default__fle_0.logical_tile_clb_mode_default__fle_mode_physical__fabric_0.logical_tile_clb_mode_default__fle_mode_physical__fabric_mode_default__frac_logic_0.mux_frac_logic_out_0.out
+ grid_clb_1__1_.logical_tile_clb_mode_clb__0.logical_tile_clb_mode_default__fle_0.logical_tile_clb_mode_default__fle_mode_physical__fabric_0.mem_ff_0_D_0.mem_out\[0\]
+ VGND VGND VPWR VPWR grid_clb_1__1_.logical_tile_clb_mode_clb__0.logical_tile_clb_mode_default__fle_0.logical_tile_clb_mode_default__fle_mode_physical__fabric_0.mux_ff_0_D_0.sky130_fd_sc_hd__mux2_1_0_X
+ sky130_fd_sc_hd__mux2_1
Xsb_1__1_.mux_left_track_37.mux_l2_in_1__387 VGND VGND VPWR VPWR sb_1__1_.mux_left_track_37.mux_l2_in_1__387/HI
+ net387 sky130_fd_sc_hd__conb_1
XFILLER_68_125 VGND VGND VPWR VPWR sky130_fd_sc_hd__fill_1
XFILLER_56_309 VGND VGND VPWR VPWR sky130_fd_sc_hd__decap_4
XFILLER_37_501 VGND VGND VPWR VPWR sky130_fd_sc_hd__decap_3
Xsb_1__1_.mux_top_track_0.mux_l2_in_3_ net403 net4 sb_1__1_.mem_top_track_0.mem_out\[1\]
+ VGND VGND VPWR VPWR sb_1__1_.mux_top_track_0.sky130_fd_sc_hd__mux2_1_7_X sky130_fd_sc_hd__mux2_1
XFILLER_91_194 VGND VGND VPWR VPWR sky130_fd_sc_hd__decap_4
Xgrid_clb_1__1_.logical_tile_clb_mode_clb__0.logical_tile_clb_mode_default__fle_5.logical_tile_clb_mode_default__fle_mode_physical__fabric_0.logical_tile_clb_mode_default__fle_mode_physical__fabric_mode_default__frac_logic_0.logical_tile_clb_mode_default__fle_mode_physical__fabric_mode_default__frac_logic_mode_default__frac_lut4_0.frac_lut4_sky130_fd_sc_hd__dfrtp_1_mem.sky130_fd_sc_hd__dfrtp_1_8_
+ clknet_leaf_59_prog_clk grid_clb_1__1_.logical_tile_clb_mode_clb__0.logical_tile_clb_mode_default__fle_5.logical_tile_clb_mode_default__fle_mode_physical__fabric_0.logical_tile_clb_mode_default__fle_mode_physical__fabric_mode_default__frac_logic_0.logical_tile_clb_mode_default__fle_mode_physical__fabric_mode_default__frac_logic_mode_default__frac_lut4_0.frac_lut4_0_.frac_lut4_mux_0_.in\[7\]
+ net123 VGND VGND VPWR VPWR grid_clb_1__1_.logical_tile_clb_mode_clb__0.logical_tile_clb_mode_default__fle_5.logical_tile_clb_mode_default__fle_mode_physical__fabric_0.logical_tile_clb_mode_default__fle_mode_physical__fabric_mode_default__frac_logic_0.logical_tile_clb_mode_default__fle_mode_physical__fabric_mode_default__frac_logic_mode_default__frac_lut4_0.frac_lut4_0_.frac_lut4_mux_0_.in\[8\]
+ sky130_fd_sc_hd__dfrtp_1
XFILLER_32_250 VGND VGND VPWR VPWR sky130_fd_sc_hd__fill_2
Xsb_1__1_.mem_top_track_28.sky130_fd_sc_hd__dfrtp_1_3_ clknet_leaf_24_prog_clk sb_1__1_.mem_top_track_28.mem_out\[2\]
+ net298 VGND VGND VPWR VPWR sb_1__1_.mem_top_track_28.ccff_tail sky130_fd_sc_hd__dfrtp_1
Xoutput242 net242 VGND VGND VPWR VPWR chany_top_out_0[12] sky130_fd_sc_hd__buf_12
Xoutput253 net253 VGND VGND VPWR VPWR chany_top_out_0[22] sky130_fd_sc_hd__buf_12
Xoutput231 net231 VGND VGND VPWR VPWR chany_bottom_out[2] sky130_fd_sc_hd__buf_12
Xoutput220 net220 VGND VGND VPWR VPWR chany_bottom_out[1] sky130_fd_sc_hd__buf_12
Xoutput286 net286 VGND VGND VPWR VPWR test_enable_top_out sky130_fd_sc_hd__buf_12
Xoutput264 net264 VGND VGND VPWR VPWR chany_top_out_0[5] sky130_fd_sc_hd__buf_12
Xoutput275 net275 VGND VGND VPWR VPWR right_width_0_height_0_subtile_0__pin_O_10_
+ sky130_fd_sc_hd__buf_12
XFILLER_87_478 VGND VGND VPWR VPWR sky130_fd_sc_hd__decap_4
XFILLER_59_169 VGND VGND VPWR VPWR sky130_fd_sc_hd__fill_2
XFILLER_74_27 VGND VGND VPWR VPWR sky130_fd_sc_hd__fill_1
XFILLER_55_353 VGND VGND VPWR VPWR sky130_fd_sc_hd__decap_8
XFILLER_90_15 VGND VGND VPWR VPWR sky130_ef_sc_hd__decap_12
XFILLER_23_250 VGND VGND VPWR VPWR sky130_fd_sc_hd__decap_6
Xgrid_clb_1__1_.logical_tile_clb_mode_clb__0.logical_tile_clb_mode_default__fle_5.logical_tile_clb_mode_default__fle_mode_physical__fabric_0.logical_tile_clb_mode_default__fle_mode_physical__fabric_mode_default__frac_logic_0.logical_tile_clb_mode_default__fle_mode_physical__fabric_mode_default__frac_logic_mode_default__frac_lut4_0.frac_lut4_0_.frac_lut4_mux_0_.sky130_fd_sc_hd__buf_2_3_
+ grid_clb_1__1_.logical_tile_clb_mode_clb__0.logical_tile_clb_mode_default__fle_5.logical_tile_clb_mode_default__fle_mode_physical__fabric_0.logical_tile_clb_mode_default__fle_mode_physical__fabric_mode_default__frac_logic_0.logical_tile_clb_mode_default__fle_mode_physical__fabric_mode_default__frac_logic_mode_default__frac_lut4_0.frac_lut4_0_.frac_lut4_mux_0_.sky130_fd_sc_hd__mux2_1_13_X
+ VGND VGND VPWR VPWR grid_clb_1__1_.logical_tile_clb_mode_clb__0.logical_tile_clb_mode_default__fle_5.logical_tile_clb_mode_default__fle_mode_physical__fabric_0.logical_tile_clb_mode_default__fle_mode_physical__fabric_mode_default__frac_logic_0.direct_interc_0_.in
+ sky130_fd_sc_hd__clkbuf_1
XFILLER_11_478 VGND VGND VPWR VPWR sky130_ef_sc_hd__decap_12
XFILLER_7_449 VGND VGND VPWR VPWR sky130_fd_sc_hd__fill_2
Xsb_1__1_.mux_right_track_10.mux_l3_in_1_ sb_1__1_.mux_right_track_10.sky130_fd_sc_hd__mux2_1_8_X
+ sb_1__1_.mux_right_track_10.sky130_fd_sc_hd__mux2_1_7_X sb_1__1_.mem_right_track_10.mem_out\[2\]
+ VGND VGND VPWR VPWR sb_1__1_.mux_right_track_10.sky130_fd_sc_hd__mux2_1_10_X sky130_fd_sc_hd__mux2_1
Xsb_1__1_.mux_right_track_52.mux_l1_in_1_ net65 net130 sb_1__1_.mem_right_track_52.mem_out\[0\]
+ VGND VGND VPWR VPWR sb_1__1_.mux_right_track_52.sky130_fd_sc_hd__mux2_1_1_X sky130_fd_sc_hd__mux2_1
XFILLER_38_309 VGND VGND VPWR VPWR sky130_fd_sc_hd__fill_2
XFILLER_19_501 VGND VGND VPWR VPWR sky130_fd_sc_hd__decap_3
XFILLER_58_180 VGND VGND VPWR VPWR sky130_fd_sc_hd__decap_4
Xsb_1__1_.mux_left_track_3.mux_l1_in_1_ net48 net93 sb_1__1_.mem_left_track_3.mem_out\[0\]
+ VGND VGND VPWR VPWR sb_1__1_.mux_left_track_3.sky130_fd_sc_hd__mux2_1_1_X sky130_fd_sc_hd__mux2_1
XFILLER_0_57 VGND VGND VPWR VPWR sky130_fd_sc_hd__decap_4
Xgrid_clb_1__1_.logical_tile_clb_mode_clb__0.logical_tile_clb_mode_default__fle_5.logical_tile_clb_mode_default__fle_mode_physical__fabric_0.logical_tile_clb_mode_default__fle_mode_physical__fabric_mode_default__ff_0.sky130_fd_sc_hd__sdfrtp_1_0_
+ clknet_1_0__leaf_clk0 grid_clb_1__1_.logical_tile_clb_mode_clb__0.logical_tile_clb_mode_default__fle_5.logical_tile_clb_mode_default__fle_mode_physical__fabric_0.logical_tile_clb_mode_default__fle_mode_physical__fabric_mode_default__ff_0.ff_D
+ net124 grid_clb_1__1_.logical_tile_clb_mode_clb__0.direct_interc_68_.in net134 VGND
+ VGND VPWR VPWR grid_clb_1__1_.logical_tile_clb_mode_clb__0.logical_tile_clb_mode_default__fle_5.logical_tile_clb_mode_default__fle_mode_physical__fabric_0.direct_interc_11_.in
+ sky130_fd_sc_hd__sdfrtp_1
XFILLER_64_71 VGND VGND VPWR VPWR sky130_ef_sc_hd__decap_12
XFILLER_61_367 VGND VGND VPWR VPWR sky130_fd_sc_hd__fill_1
XFILLER_14_283 VGND VGND VPWR VPWR sky130_ef_sc_hd__decap_12
XFILLER_9_88 VGND VGND VPWR VPWR sky130_ef_sc_hd__decap_12
X_329_ net107 VGND VGND VPWR VPWR net222 sky130_fd_sc_hd__clkbuf_2
Xgrid_clb_1__1_.logical_tile_clb_mode_clb__0.logical_tile_clb_mode_default__fle_7.logical_tile_clb_mode_default__fle_mode_physical__fabric_0.logical_tile_clb_mode_default__fle_mode_physical__fabric_mode_default__frac_logic_0.logical_tile_clb_mode_default__fle_mode_physical__fabric_mode_default__frac_logic_mode_default__frac_lut4_0.frac_lut4_0_.frac_lut4_mux_0_.mux_l1_in_6_
+ grid_clb_1__1_.logical_tile_clb_mode_clb__0.logical_tile_clb_mode_default__fle_7.logical_tile_clb_mode_default__fle_mode_physical__fabric_0.logical_tile_clb_mode_default__fle_mode_physical__fabric_mode_default__frac_logic_0.logical_tile_clb_mode_default__fle_mode_physical__fabric_mode_default__frac_logic_mode_default__frac_lut4_0.frac_lut4_0_.frac_lut4_mux_0_.in\[13\]
+ grid_clb_1__1_.logical_tile_clb_mode_clb__0.logical_tile_clb_mode_default__fle_7.logical_tile_clb_mode_default__fle_mode_physical__fabric_0.logical_tile_clb_mode_default__fle_mode_physical__fabric_mode_default__frac_logic_0.logical_tile_clb_mode_default__fle_mode_physical__fabric_mode_default__frac_logic_mode_default__frac_lut4_0.frac_lut4_0_.frac_lut4_mux_0_.in\[12\]
+ grid_clb_1__1_.logical_tile_clb_mode_clb__0.logical_tile_clb_mode_default__fle_7.logical_tile_clb_mode_default__fle_mode_physical__fabric_0.logical_tile_clb_mode_default__fle_mode_physical__fabric_mode_default__frac_logic_0.logical_tile_clb_mode_default__fle_mode_physical__fabric_mode_default__frac_logic_mode_default__frac_lut4_0.frac_lut4_0_.sky130_fd_sc_hd__buf_2_0_X
+ VGND VGND VPWR VPWR grid_clb_1__1_.logical_tile_clb_mode_clb__0.logical_tile_clb_mode_default__fle_7.logical_tile_clb_mode_default__fle_mode_physical__fabric_0.logical_tile_clb_mode_default__fle_mode_physical__fabric_mode_default__frac_logic_0.logical_tile_clb_mode_default__fle_mode_physical__fabric_mode_default__frac_logic_mode_default__frac_lut4_0.frac_lut4_0_.frac_lut4_mux_0_.sky130_fd_sc_hd__mux2_1_6_X
+ sky130_fd_sc_hd__mux2_1
Xsb_1__1_.mem_bottom_track_5.sky130_fd_sc_hd__dfrtp_1_3_ clknet_leaf_41_prog_clk sb_1__1_.mem_bottom_track_5.mem_out\[2\]
+ net297 VGND VGND VPWR VPWR sb_1__1_.mem_bottom_track_5.ccff_tail sky130_fd_sc_hd__dfrtp_1
XFILLER_50_3 VGND VGND VPWR VPWR sky130_fd_sc_hd__decap_6
Xgrid_clb_1__1_.logical_tile_clb_mode_clb__0.logical_tile_clb_mode_default__fle_5.logical_tile_clb_mode_default__fle_mode_physical__fabric_0.logical_tile_clb_mode_default__fle_mode_physical__fabric_mode_default__frac_logic_0.mux_frac_logic_out_0.mux_l1_in_0_