* NGSPICE file created from top_left_tile.ext - technology: sky130A

* Black-box entry subcircuit for sky130_fd_sc_hd__tapvpwrvgnd_1 abstract view
.subckt sky130_fd_sc_hd__tapvpwrvgnd_1 VGND VPWR
.ends

* Black-box entry subcircuit for sky130_fd_sc_hd__fill_1 abstract view
.subckt sky130_fd_sc_hd__fill_1 VGND VNB VPB VPWR
.ends

* Black-box entry subcircuit for sky130_ef_sc_hd__decap_12 abstract view
.subckt sky130_ef_sc_hd__decap_12 VGND VNB VPB VPWR
.ends

* Black-box entry subcircuit for sky130_fd_sc_hd__decap_4 abstract view
.subckt sky130_fd_sc_hd__decap_4 VGND VNB VPB VPWR
.ends

* Black-box entry subcircuit for sky130_fd_sc_hd__decap_6 abstract view
.subckt sky130_fd_sc_hd__decap_6 VGND VNB VPB VPWR
.ends

* Black-box entry subcircuit for sky130_fd_sc_hd__decap_8 abstract view
.subckt sky130_fd_sc_hd__decap_8 VGND VNB VPB VPWR
.ends

* Black-box entry subcircuit for sky130_fd_sc_hd__mux2_1 abstract view
.subckt sky130_fd_sc_hd__mux2_1 A0 A1 S VGND VNB VPB VPWR X
.ends

* Black-box entry subcircuit for sky130_fd_sc_hd__decap_3 abstract view
.subckt sky130_fd_sc_hd__decap_3 VGND VNB VPB VPWR
.ends

* Black-box entry subcircuit for sky130_fd_sc_hd__clkbuf_1 abstract view
.subckt sky130_fd_sc_hd__clkbuf_1 A VGND VNB VPB VPWR X
.ends

* Black-box entry subcircuit for sky130_fd_sc_hd__fill_2 abstract view
.subckt sky130_fd_sc_hd__fill_2 VGND VNB VPB VPWR
.ends

* Black-box entry subcircuit for sky130_fd_sc_hd__dfrtp_1 abstract view
.subckt sky130_fd_sc_hd__dfrtp_1 CLK D RESET_B VGND VNB VPB VPWR Q
.ends

* Black-box entry subcircuit for sky130_fd_sc_hd__conb_1 abstract view
.subckt sky130_fd_sc_hd__conb_1 VGND VNB VPB VPWR HI LO
.ends

* Black-box entry subcircuit for sky130_fd_sc_hd__diode_2 abstract view
.subckt sky130_fd_sc_hd__diode_2 DIODE VGND VNB VPB VPWR
.ends

* Black-box entry subcircuit for sky130_fd_sc_hd__buf_12 abstract view
.subckt sky130_fd_sc_hd__buf_12 A VGND VNB VPB VPWR X
.ends

* Black-box entry subcircuit for sky130_fd_sc_hd__clkbuf_8 abstract view
.subckt sky130_fd_sc_hd__clkbuf_8 A VGND VNB VPB VPWR X
.ends

* Black-box entry subcircuit for sky130_fd_sc_hd__dfrtp_2 abstract view
.subckt sky130_fd_sc_hd__dfrtp_2 CLK D RESET_B VGND VNB VPB VPWR Q
.ends

* Black-box entry subcircuit for sky130_fd_sc_hd__clkbuf_2 abstract view
.subckt sky130_fd_sc_hd__clkbuf_2 A VGND VNB VPB VPWR X
.ends

* Black-box entry subcircuit for sky130_fd_sc_hd__dfrtp_4 abstract view
.subckt sky130_fd_sc_hd__dfrtp_4 CLK D RESET_B VGND VNB VPB VPWR Q
.ends

* Black-box entry subcircuit for sky130_fd_sc_hd__inv_1 abstract view
.subckt sky130_fd_sc_hd__inv_1 A VGND VNB VPB VPWR Y
.ends

* Black-box entry subcircuit for sky130_fd_sc_hd__ebufn_8 abstract view
.subckt sky130_fd_sc_hd__ebufn_8 A TE_B VGND VNB VPB VPWR Z
.ends

* Black-box entry subcircuit for sky130_fd_sc_hd__or2b_1 abstract view
.subckt sky130_fd_sc_hd__or2b_1 A B_N VGND VNB VPB VPWR X
.ends

* Black-box entry subcircuit for sky130_fd_sc_hd__ebufn_1 abstract view
.subckt sky130_fd_sc_hd__ebufn_1 A TE_B VGND VNB VPB VPWR Z
.ends

* Black-box entry subcircuit for sky130_fd_sc_hd__clkbuf_4 abstract view
.subckt sky130_fd_sc_hd__clkbuf_4 A VGND VNB VPB VPWR X
.ends

* Black-box entry subcircuit for sky130_fd_sc_hd__clkbuf_16 abstract view
.subckt sky130_fd_sc_hd__clkbuf_16 A VGND VNB VPB VPWR X
.ends

* Black-box entry subcircuit for sky130_fd_sc_hd__dlymetal6s2s_1 abstract view
.subckt sky130_fd_sc_hd__dlymetal6s2s_1 A VGND VNB VPB VPWR X
.ends

* Black-box entry subcircuit for sky130_fd_sc_hd__buf_2 abstract view
.subckt sky130_fd_sc_hd__buf_2 A VGND VNB VPB VPWR X
.ends

.subckt top_left_tile VGND VPWR ccff_head ccff_head_0 ccff_tail ccff_tail_0 chanx_right_in[0]
+ chanx_right_in[10] chanx_right_in[11] chanx_right_in[12] chanx_right_in[13] chanx_right_in[14]
+ chanx_right_in[15] chanx_right_in[16] chanx_right_in[17] chanx_right_in[18] chanx_right_in[19]
+ chanx_right_in[1] chanx_right_in[20] chanx_right_in[21] chanx_right_in[22] chanx_right_in[23]
+ chanx_right_in[24] chanx_right_in[25] chanx_right_in[26] chanx_right_in[27] chanx_right_in[28]
+ chanx_right_in[29] chanx_right_in[2] chanx_right_in[3] chanx_right_in[4] chanx_right_in[5]
+ chanx_right_in[6] chanx_right_in[7] chanx_right_in[8] chanx_right_in[9] chanx_right_out[0]
+ chanx_right_out[10] chanx_right_out[11] chanx_right_out[12] chanx_right_out[13]
+ chanx_right_out[14] chanx_right_out[15] chanx_right_out[16] chanx_right_out[17]
+ chanx_right_out[18] chanx_right_out[19] chanx_right_out[1] chanx_right_out[20] chanx_right_out[21]
+ chanx_right_out[22] chanx_right_out[23] chanx_right_out[24] chanx_right_out[25]
+ chanx_right_out[26] chanx_right_out[27] chanx_right_out[28] chanx_right_out[29]
+ chanx_right_out[2] chanx_right_out[3] chanx_right_out[4] chanx_right_out[5] chanx_right_out[6]
+ chanx_right_out[7] chanx_right_out[8] chanx_right_out[9] chany_bottom_in_0[0] chany_bottom_in_0[10]
+ chany_bottom_in_0[11] chany_bottom_in_0[12] chany_bottom_in_0[13] chany_bottom_in_0[14]
+ chany_bottom_in_0[15] chany_bottom_in_0[16] chany_bottom_in_0[17] chany_bottom_in_0[18]
+ chany_bottom_in_0[19] chany_bottom_in_0[1] chany_bottom_in_0[20] chany_bottom_in_0[21]
+ chany_bottom_in_0[22] chany_bottom_in_0[23] chany_bottom_in_0[24] chany_bottom_in_0[25]
+ chany_bottom_in_0[26] chany_bottom_in_0[27] chany_bottom_in_0[28] chany_bottom_in_0[29]
+ chany_bottom_in_0[2] chany_bottom_in_0[3] chany_bottom_in_0[4] chany_bottom_in_0[5]
+ chany_bottom_in_0[6] chany_bottom_in_0[7] chany_bottom_in_0[8] chany_bottom_in_0[9]
+ chany_bottom_out_0[0] chany_bottom_out_0[10] chany_bottom_out_0[11] chany_bottom_out_0[12]
+ chany_bottom_out_0[13] chany_bottom_out_0[14] chany_bottom_out_0[15] chany_bottom_out_0[16]
+ chany_bottom_out_0[17] chany_bottom_out_0[18] chany_bottom_out_0[19] chany_bottom_out_0[1]
+ chany_bottom_out_0[20] chany_bottom_out_0[21] chany_bottom_out_0[22] chany_bottom_out_0[23]
+ chany_bottom_out_0[24] chany_bottom_out_0[25] chany_bottom_out_0[26] chany_bottom_out_0[27]
+ chany_bottom_out_0[28] chany_bottom_out_0[29] chany_bottom_out_0[2] chany_bottom_out_0[3]
+ chany_bottom_out_0[4] chany_bottom_out_0[5] chany_bottom_out_0[6] chany_bottom_out_0[7]
+ chany_bottom_out_0[8] chany_bottom_out_0[9] gfpga_pad_io_soc_dir[0] gfpga_pad_io_soc_dir[1]
+ gfpga_pad_io_soc_dir[2] gfpga_pad_io_soc_dir[3] gfpga_pad_io_soc_in[0] gfpga_pad_io_soc_in[1]
+ gfpga_pad_io_soc_in[2] gfpga_pad_io_soc_in[3] gfpga_pad_io_soc_out[0] gfpga_pad_io_soc_out[1]
+ gfpga_pad_io_soc_out[2] gfpga_pad_io_soc_out[3] isol_n prog_clk prog_reset_bottom_in
+ reset_bottom_in right_bottom_grid_top_width_0_height_0_subtile_0__pin_O_0_ right_bottom_grid_top_width_0_height_0_subtile_0__pin_O_1_
+ right_bottom_grid_top_width_0_height_0_subtile_0__pin_O_2_ right_bottom_grid_top_width_0_height_0_subtile_0__pin_O_3_
+ right_bottom_grid_top_width_0_height_0_subtile_0__pin_O_4_ right_bottom_grid_top_width_0_height_0_subtile_0__pin_O_5_
+ right_bottom_grid_top_width_0_height_0_subtile_0__pin_O_6_ right_bottom_grid_top_width_0_height_0_subtile_0__pin_O_7_
+ right_top_grid_bottom_width_0_height_0_subtile_0__pin_inpad_0_ right_top_grid_bottom_width_0_height_0_subtile_1__pin_inpad_0_
+ right_top_grid_bottom_width_0_height_0_subtile_2__pin_inpad_0_ right_top_grid_bottom_width_0_height_0_subtile_3__pin_inpad_0_
+ right_width_0_height_0_subtile_0__pin_inpad_0_ right_width_0_height_0_subtile_1__pin_inpad_0_
+ right_width_0_height_0_subtile_2__pin_inpad_0_ right_width_0_height_0_subtile_3__pin_inpad_0_
+ test_enable_bottom_in
XTAP_199 VGND VPWR sky130_fd_sc_hd__tapvpwrvgnd_1
XFILLER_79_391 VGND VGND VPWR VPWR sky130_fd_sc_hd__fill_1
XFILLER_82_501 VGND VGND VPWR VPWR sky130_ef_sc_hd__decap_12
XFILLER_27_439 VGND VGND VPWR VPWR sky130_fd_sc_hd__decap_4
XFILLER_22_133 VGND VGND VPWR VPWR sky130_fd_sc_hd__decap_6
XFILLER_52_29 VGND VGND VPWR VPWR sky130_ef_sc_hd__decap_12
XFILLER_50_464 VGND VGND VPWR VPWR sky130_ef_sc_hd__decap_12
XFILLER_22_177 VGND VGND VPWR VPWR sky130_ef_sc_hd__decap_12
XFILLER_89_111 VGND VGND VPWR VPWR sky130_fd_sc_hd__fill_1
XFILLER_77_15 VGND VGND VPWR VPWR sky130_ef_sc_hd__decap_12
XFILLER_77_317 VGND VGND VPWR VPWR sky130_ef_sc_hd__decap_12
XFILLER_92_309 VGND VGND VPWR VPWR sky130_ef_sc_hd__decap_12
XFILLER_85_361 VGND VGND VPWR VPWR sky130_ef_sc_hd__decap_12
XFILLER_45_225 VGND VGND VPWR VPWR sky130_ef_sc_hd__decap_12
XFILLER_93_69 VGND VGND VPWR VPWR sky130_ef_sc_hd__decap_12
XFILLER_26_41 VGND VGND VPWR VPWR sky130_ef_sc_hd__decap_12
XFILLER_13_111 VGND VGND VPWR VPWR sky130_fd_sc_hd__fill_1
XFILLER_26_85 VGND VGND VPWR VPWR sky130_ef_sc_hd__decap_12
XFILLER_41_420 VGND VGND VPWR VPWR sky130_ef_sc_hd__decap_12
XFILLER_9_137 VGND VGND VPWR VPWR sky130_ef_sc_hd__decap_12
XFILLER_95_136 VGND VGND VPWR VPWR sky130_fd_sc_hd__decap_4
XFILLER_95_169 VGND VGND VPWR VPWR sky130_fd_sc_hd__decap_8
XFILLER_64_501 VGND VGND VPWR VPWR sky130_ef_sc_hd__decap_12
XFILLER_67_81 VGND VGND VPWR VPWR sky130_ef_sc_hd__decap_12
XFILLER_51_217 VGND VGND VPWR VPWR sky130_fd_sc_hd__decap_6
XFILLER_32_475 VGND VGND VPWR VPWR sky130_fd_sc_hd__fill_1
XFILLER_59_317 VGND VGND VPWR VPWR sky130_ef_sc_hd__decap_12
XFILLER_67_361 VGND VGND VPWR VPWR sky130_ef_sc_hd__decap_12
XFILLER_74_309 VGND VGND VPWR VPWR sky130_ef_sc_hd__decap_12
XFILLER_27_225 VGND VGND VPWR VPWR sky130_ef_sc_hd__decap_12
XFILLER_27_269 VGND VGND VPWR VPWR sky130_fd_sc_hd__decap_8
XFILLER_63_39 VGND VGND VPWR VPWR sky130_ef_sc_hd__decap_12
XFILLER_12_65 VGND VGND VPWR VPWR sky130_ef_sc_hd__decap_12
XFILLER_77_125 VGND VGND VPWR VPWR sky130_ef_sc_hd__decap_12
Xcby_0__8_.cby_0__1_.mux_right_ipin_0.mux_l2_in_2_ net58 cby_0__8_.cby_0__1_.mux_right_ipin_0.sky130_fd_sc_hd__mux2_1_4_X
+ cby_0__8_.cby_0__1_.mem_right_ipin_0.mem_out\[1\] VGND VGND VPWR VPWR cby_0__8_.cby_0__1_.mux_right_ipin_0.sky130_fd_sc_hd__mux2_1_7_X
+ sky130_fd_sc_hd__mux2_1
XFILLER_46_501 VGND VGND VPWR VPWR sky130_ef_sc_hd__decap_12
XFILLER_77_169 VGND VGND VPWR VPWR sky130_ef_sc_hd__decap_12
XFILLER_92_139 VGND VGND VPWR VPWR sky130_fd_sc_hd__fill_1
XFILLER_37_51 VGND VGND VPWR VPWR sky130_fd_sc_hd__decap_4
Xsb_0__8_.mux_right_track_6.mux_l1_in_0_ net80 net77 sb_0__8_.mem_right_track_6.mem_out\[0\]
+ VGND VGND VPWR VPWR sb_0__8_.mux_right_track_6.sky130_fd_sc_hd__mux2_1_0_X sky130_fd_sc_hd__mux2_1
XFILLER_33_217 VGND VGND VPWR VPWR sky130_fd_sc_hd__decap_6
XFILLER_14_475 VGND VGND VPWR VPWR sky130_fd_sc_hd__fill_1
XFILLER_41_261 VGND VGND VPWR VPWR sky130_ef_sc_hd__decap_12
XFILLER_49_350 VGND VGND VPWR VPWR sky130_fd_sc_hd__decap_4
XFILLER_56_309 VGND VGND VPWR VPWR sky130_ef_sc_hd__decap_12
XFILLER_20_412 VGND VGND VPWR VPWR sky130_fd_sc_hd__decap_3
XFILLER_32_283 VGND VGND VPWR VPWR sky130_fd_sc_hd__decap_3
XFILLER_20_489 VGND VGND VPWR VPWR sky130_ef_sc_hd__decap_12
XFILLER_59_125 VGND VGND VPWR VPWR sky130_ef_sc_hd__decap_12
XFILLER_59_169 VGND VGND VPWR VPWR sky130_ef_sc_hd__decap_12
XFILLER_74_139 VGND VGND VPWR VPWR sky130_fd_sc_hd__fill_1
XFILLER_74_27 VGND VGND VPWR VPWR sky130_fd_sc_hd__fill_1
XFILLER_15_217 VGND VGND VPWR VPWR sky130_fd_sc_hd__decap_6
XFILLER_70_301 VGND VGND VPWR VPWR sky130_fd_sc_hd__decap_6
XFILLER_70_345 VGND VGND VPWR VPWR sky130_ef_sc_hd__decap_12
XFILLER_90_15 VGND VGND VPWR VPWR sky130_ef_sc_hd__decap_12
XFILLER_30_209 VGND VGND VPWR VPWR sky130_ef_sc_hd__decap_12
XFILLER_70_389 VGND VGND VPWR VPWR sky130_ef_sc_hd__decap_12
X_131_ sb_0__8_.mux_right_track_4.out VGND VGND VPWR VPWR net102 sky130_fd_sc_hd__clkbuf_1
XFILLER_7_449 VGND VGND VPWR VPWR sky130_ef_sc_hd__decap_12
XFILLER_2_121 VGND VGND VPWR VPWR sky130_ef_sc_hd__decap_12
XFILLER_2_165 VGND VGND VPWR VPWR sky130_fd_sc_hd__decap_8
XFILLER_78_401 VGND VGND VPWR VPWR sky130_ef_sc_hd__decap_12
XFILLER_2_176 VGND VGND VPWR VPWR sky130_ef_sc_hd__decap_12
XFILLER_78_445 VGND VGND VPWR VPWR sky130_ef_sc_hd__decap_12
XFILLER_38_309 VGND VGND VPWR VPWR sky130_fd_sc_hd__fill_2
Xsb_0__8_.mux_right_track_58.mux_l1_in_0_ net76 net72 sb_0__8_.mem_right_track_58.mem_out\[0\]
+ VGND VGND VPWR VPWR sb_0__8_.mux_right_track_58.sky130_fd_sc_hd__mux2_1_0_X sky130_fd_sc_hd__mux2_1
XFILLER_48_83 VGND VGND VPWR VPWR sky130_fd_sc_hd__fill_1
XFILLER_78_489 VGND VGND VPWR VPWR sky130_ef_sc_hd__decap_12
XFILLER_46_342 VGND VGND VPWR VPWR sky130_fd_sc_hd__decap_4
XFILLER_0_57 VGND VGND VPWR VPWR sky130_fd_sc_hd__fill_2
XFILLER_73_161 VGND VGND VPWR VPWR sky130_fd_sc_hd__decap_6
XFILLER_80_109 VGND VGND VPWR VPWR sky130_ef_sc_hd__decap_12
XFILLER_21_209 VGND VGND VPWR VPWR sky130_ef_sc_hd__decap_12
XFILLER_9_55 VGND VGND VPWR VPWR sky130_fd_sc_hd__fill_1
Xsb_0__8_.mem_bottom_track_33.sky130_fd_sc_hd__dfrtp_1_0_ clknet_4_14_0_prog_clk sb_0__8_.mem_bottom_track_31.ccff_tail
+ net68 VGND VGND VPWR VPWR sb_0__8_.mem_bottom_track_33.mem_out\[0\] sky130_fd_sc_hd__dfrtp_1
XFILLER_6_460 VGND VGND VPWR VPWR sky130_ef_sc_hd__decap_12
XFILLER_6_482 VGND VGND VPWR VPWR sky130_ef_sc_hd__decap_12
XFILLER_50_3 VGND VGND VPWR VPWR sky130_ef_sc_hd__decap_12
XFILLER_56_139 VGND VGND VPWR VPWR sky130_fd_sc_hd__fill_1
XFILLER_52_301 VGND VGND VPWR VPWR sky130_fd_sc_hd__decap_6
Xcby_0__8_.grid_io_left_left_0__1_.logical_tile_io_mode_io__1.logical_tile_io_mode_physical__iopad_0.io_sky130_fd_sc_hd__dfrtp_1_mem.sky130_fd_sc_hd__dfrtp_1_0_
+ clknet_4_10_0_prog_clk cby_0__8_.grid_io_left_left_0__1_.logical_tile_io_mode_io__0.ccff_tail
+ net68 VGND VGND VPWR VPWR cby_0__8_.grid_io_left_left_0__1_.logical_tile_io_mode_io__1.ccff_tail
+ sky130_fd_sc_hd__dfrtp_1
XFILLER_12_209 VGND VGND VPWR VPWR sky130_ef_sc_hd__decap_12
XFILLER_40_507 VGND VGND VPWR VPWR sky130_ef_sc_hd__decap_12
XFILLER_20_253 VGND VGND VPWR VPWR sky130_fd_sc_hd__decap_6
XFILLER_60_29 VGND VGND VPWR VPWR sky130_ef_sc_hd__decap_12
XFILLER_20_286 VGND VGND VPWR VPWR sky130_fd_sc_hd__decap_8
Xcby_0__8_.cby_0__1_.mux_right_ipin_0.mux_l1_in_3_ net7 net41 cby_0__8_.cby_0__1_.mem_right_ipin_0.mem_out\[0\]
+ VGND VGND VPWR VPWR cby_0__8_.cby_0__1_.mux_right_ipin_0.sky130_fd_sc_hd__mux2_1_3_X
+ sky130_fd_sc_hd__mux2_1
XFILLER_4_419 VGND VGND VPWR VPWR sky130_fd_sc_hd__fill_1
Xsb_0__8_.mux_right_track_14.mux_l1_in_1__167 VGND VGND VPWR VPWR sb_0__8_.mux_right_track_14.mux_l1_in_1__167/HI
+ net167 sky130_fd_sc_hd__conb_1
XFILLER_69_27 VGND VGND VPWR VPWR sky130_ef_sc_hd__decap_12
XFILLER_85_15 VGND VGND VPWR VPWR sky130_ef_sc_hd__decap_12
XFILLER_18_53 VGND VGND VPWR VPWR sky130_ef_sc_hd__decap_12
XFILLER_55_161 VGND VGND VPWR VPWR sky130_fd_sc_hd__decap_6
XFILLER_62_109 VGND VGND VPWR VPWR sky130_ef_sc_hd__decap_12
XFILLER_18_97 VGND VGND VPWR VPWR sky130_ef_sc_hd__decap_12
XFILLER_70_153 VGND VGND VPWR VPWR sky130_ef_sc_hd__decap_12
XFILLER_34_41 VGND VGND VPWR VPWR sky130_ef_sc_hd__decap_12
XFILLER_43_389 VGND VGND VPWR VPWR sky130_fd_sc_hd__decap_3
XFILLER_34_85 VGND VGND VPWR VPWR sky130_ef_sc_hd__decap_12
XFILLER_70_197 VGND VGND VPWR VPWR sky130_ef_sc_hd__decap_12
X_114_ sb_0__8_.mux_right_track_38.out VGND VGND VPWR VPWR net84 sky130_fd_sc_hd__clkbuf_1
XFILLER_7_279 VGND VGND VPWR VPWR sky130_fd_sc_hd__fill_1
XFILLER_3_441 VGND VGND VPWR VPWR sky130_fd_sc_hd__decap_6
XTAP_507 VGND VPWR sky130_fd_sc_hd__tapvpwrvgnd_1
XFILLER_3_485 VGND VGND VPWR VPWR sky130_fd_sc_hd__decap_6
XTAP_518 VGND VPWR sky130_fd_sc_hd__tapvpwrvgnd_1
XTAP_529 VGND VPWR sky130_fd_sc_hd__tapvpwrvgnd_1
XFILLER_59_93 VGND VGND VPWR VPWR sky130_ef_sc_hd__decap_12
XFILLER_78_231 VGND VGND VPWR VPWR sky130_ef_sc_hd__decap_12
XFILLER_78_253 VGND VGND VPWR VPWR sky130_ef_sc_hd__decap_12
XFILLER_93_223 VGND VGND VPWR VPWR sky130_fd_sc_hd__fill_1
XFILLER_38_139 VGND VGND VPWR VPWR sky130_fd_sc_hd__fill_1
XFILLER_19_375 VGND VGND VPWR VPWR sky130_fd_sc_hd__decap_4
XFILLER_75_81 VGND VGND VPWR VPWR sky130_ef_sc_hd__decap_12
XFILLER_81_429 VGND VGND VPWR VPWR sky130_ef_sc_hd__decap_12
XFILLER_84_245 VGND VGND VPWR VPWR sky130_fd_sc_hd__decap_6
XFILLER_84_289 VGND VGND VPWR VPWR sky130_ef_sc_hd__decap_12
XFILLER_44_109 VGND VGND VPWR VPWR sky130_ef_sc_hd__decap_12
XFILLER_37_161 VGND VGND VPWR VPWR sky130_fd_sc_hd__decap_6
XFILLER_52_153 VGND VGND VPWR VPWR sky130_ef_sc_hd__decap_12
XFILLER_52_197 VGND VGND VPWR VPWR sky130_ef_sc_hd__decap_12
XFILLER_71_39 VGND VGND VPWR VPWR sky130_ef_sc_hd__decap_12
XFILLER_20_65 VGND VGND VPWR VPWR sky130_ef_sc_hd__decap_12
XFILLER_0_411 VGND VGND VPWR VPWR sky130_fd_sc_hd__decap_8
XFILLER_0_477 VGND VGND VPWR VPWR sky130_fd_sc_hd__fill_2
XFILLER_75_223 VGND VGND VPWR VPWR sky130_fd_sc_hd__fill_1
XFILLER_63_429 VGND VGND VPWR VPWR sky130_ef_sc_hd__decap_12
XFILLER_45_51 VGND VGND VPWR VPWR sky130_fd_sc_hd__decap_4
XFILLER_71_473 VGND VGND VPWR VPWR sky130_ef_sc_hd__decap_12
XFILLER_31_337 VGND VGND VPWR VPWR sky130_fd_sc_hd__decap_3
Xsb_0__8_.mux_right_track_44.mux_l1_in_1__184 VGND VGND VPWR VPWR sb_0__8_.mux_right_track_44.mux_l1_in_1__184/HI
+ net184 sky130_fd_sc_hd__conb_1
XANTENNA_5 right_width_0_height_0_subtile_3__pin_inpad_0_ VGND VGND VPWR VPWR sky130_fd_sc_hd__diode_2
XTAP_315 VGND VPWR sky130_fd_sc_hd__tapvpwrvgnd_1
XTAP_304 VGND VPWR sky130_fd_sc_hd__tapvpwrvgnd_1
XTAP_348 VGND VPWR sky130_fd_sc_hd__tapvpwrvgnd_1
XTAP_337 VGND VPWR sky130_fd_sc_hd__tapvpwrvgnd_1
XTAP_326 VGND VPWR sky130_fd_sc_hd__tapvpwrvgnd_1
XFILLER_3_293 VGND VGND VPWR VPWR sky130_ef_sc_hd__decap_12
XTAP_359 VGND VPWR sky130_fd_sc_hd__tapvpwrvgnd_1
XFILLER_13_3 VGND VGND VPWR VPWR sky130_ef_sc_hd__decap_12
XFILLER_66_245 VGND VGND VPWR VPWR sky130_fd_sc_hd__decap_6
XFILLER_26_109 VGND VGND VPWR VPWR sky130_ef_sc_hd__decap_12
XFILLER_19_161 VGND VGND VPWR VPWR sky130_fd_sc_hd__decap_6
XFILLER_47_470 VGND VGND VPWR VPWR sky130_ef_sc_hd__decap_12
XFILLER_66_289 VGND VGND VPWR VPWR sky130_ef_sc_hd__decap_12
XFILLER_81_237 VGND VGND VPWR VPWR sky130_fd_sc_hd__decap_3
XFILLER_34_153 VGND VGND VPWR VPWR sky130_ef_sc_hd__decap_12
XFILLER_34_197 VGND VGND VPWR VPWR sky130_ef_sc_hd__decap_12
XFILLER_89_337 VGND VGND VPWR VPWR sky130_ef_sc_hd__decap_12
Xsb_0__8_.mem_right_track_34.sky130_fd_sc_hd__dfrtp_1_0_ clknet_4_6_0_prog_clk sb_0__8_.mem_right_track_32.ccff_tail
+ net68 VGND VGND VPWR VPWR sb_0__8_.mem_right_track_34.mem_out\[0\] sky130_fd_sc_hd__dfrtp_1
XTAP_860 VGND VPWR sky130_fd_sc_hd__tapvpwrvgnd_1
XTAP_871 VGND VPWR sky130_fd_sc_hd__tapvpwrvgnd_1
XFILLER_57_223 VGND VGND VPWR VPWR sky130_fd_sc_hd__fill_1
XTAP_882 VGND VPWR sky130_fd_sc_hd__tapvpwrvgnd_1
XTAP_893 VGND VPWR sky130_fd_sc_hd__tapvpwrvgnd_1
XFILLER_45_418 VGND VGND VPWR VPWR sky130_ef_sc_hd__decap_12
XFILLER_82_27 VGND VGND VPWR VPWR sky130_fd_sc_hd__fill_1
XFILLER_13_315 VGND VGND VPWR VPWR sky130_fd_sc_hd__decap_4
XFILLER_80_270 VGND VGND VPWR VPWR sky130_ef_sc_hd__decap_12
XFILLER_13_337 VGND VGND VPWR VPWR sky130_fd_sc_hd__decap_6
XFILLER_40_189 VGND VGND VPWR VPWR sky130_fd_sc_hd__decap_6
XFILLER_5_503 VGND VGND VPWR VPWR sky130_fd_sc_hd__fill_1
XFILLER_5_525 VGND VGND VPWR VPWR sky130_fd_sc_hd__fill_2
Xoutput86 net86 VGND VGND VPWR VPWR chanx_right_out[12] sky130_fd_sc_hd__buf_12
Xoutput97 net97 VGND VGND VPWR VPWR chanx_right_out[22] sky130_fd_sc_hd__buf_12
XFILLER_36_407 VGND VGND VPWR VPWR sky130_fd_sc_hd__fill_2
XFILLER_36_418 VGND VGND VPWR VPWR sky130_fd_sc_hd__fill_2
XFILLER_48_245 VGND VGND VPWR VPWR sky130_fd_sc_hd__decap_6
XFILLER_48_289 VGND VGND VPWR VPWR sky130_ef_sc_hd__decap_12
XFILLER_56_83 VGND VGND VPWR VPWR sky130_fd_sc_hd__fill_1
XFILLER_63_237 VGND VGND VPWR VPWR sky130_ef_sc_hd__decap_12
XFILLER_29_492 VGND VGND VPWR VPWR sky130_ef_sc_hd__decap_12
XFILLER_16_153 VGND VGND VPWR VPWR sky130_ef_sc_hd__decap_12
XFILLER_44_451 VGND VGND VPWR VPWR sky130_fd_sc_hd__decap_8
XFILLER_16_197 VGND VGND VPWR VPWR sky130_ef_sc_hd__decap_12
XFILLER_71_281 VGND VGND VPWR VPWR sky130_ef_sc_hd__decap_12
XPHY_170 VGND VGND VPWR VPWR sky130_fd_sc_hd__decap_3
Xcby_0__8_.cby_0__1_.mux_right_ipin_0.mux_l3_in_0_ cby_0__8_.cby_0__1_.mux_right_ipin_0.sky130_fd_sc_hd__mux2_1_6_X
+ cby_0__8_.cby_0__1_.mux_right_ipin_0.sky130_fd_sc_hd__mux2_1_5_X cby_0__8_.cby_0__1_.mem_right_ipin_0.mem_out\[2\]
+ VGND VGND VPWR VPWR cby_0__8_.cby_0__1_.mux_right_ipin_0.sky130_fd_sc_hd__mux2_1_9_X
+ sky130_fd_sc_hd__mux2_1
XFILLER_31_167 VGND VGND VPWR VPWR sky130_fd_sc_hd__fill_1
XPHY_181 VGND VGND VPWR VPWR sky130_fd_sc_hd__decap_3
XFILLER_8_363 VGND VGND VPWR VPWR sky130_fd_sc_hd__fill_1
XFILLER_86_307 VGND VGND VPWR VPWR sky130_fd_sc_hd__fill_1
XFILLER_39_223 VGND VGND VPWR VPWR sky130_fd_sc_hd__fill_1
XFILLER_82_513 VGND VGND VPWR VPWR sky130_ef_sc_hd__decap_12
XFILLER_35_462 VGND VGND VPWR VPWR sky130_fd_sc_hd__decap_4
XFILLER_50_421 VGND VGND VPWR VPWR sky130_ef_sc_hd__decap_12
XFILLER_22_189 VGND VGND VPWR VPWR sky130_fd_sc_hd__decap_6
XFILLER_77_27 VGND VGND VPWR VPWR sky130_ef_sc_hd__decap_12
XFILLER_89_167 VGND VGND VPWR VPWR sky130_fd_sc_hd__fill_1
XFILLER_77_329 VGND VGND VPWR VPWR sky130_fd_sc_hd__decap_6
XFILLER_93_15 VGND VGND VPWR VPWR sky130_ef_sc_hd__decap_12
XTAP_690 VGND VPWR sky130_fd_sc_hd__tapvpwrvgnd_1
XFILLER_85_373 VGND VGND VPWR VPWR sky130_ef_sc_hd__decap_12
XFILLER_45_237 VGND VGND VPWR VPWR sky130_ef_sc_hd__decap_12
XFILLER_26_53 VGND VGND VPWR VPWR sky130_ef_sc_hd__decap_12
XFILLER_26_97 VGND VGND VPWR VPWR sky130_ef_sc_hd__decap_12
XFILLER_41_432 VGND VGND VPWR VPWR sky130_ef_sc_hd__decap_12
XFILLER_53_281 VGND VGND VPWR VPWR sky130_ef_sc_hd__decap_12
XFILLER_13_167 VGND VGND VPWR VPWR sky130_fd_sc_hd__fill_1
XFILLER_9_105 VGND VGND VPWR VPWR sky130_fd_sc_hd__decap_6
XFILLER_9_149 VGND VGND VPWR VPWR sky130_ef_sc_hd__decap_12
XFILLER_42_41 VGND VGND VPWR VPWR sky130_ef_sc_hd__decap_12
XFILLER_42_85 VGND VGND VPWR VPWR sky130_ef_sc_hd__decap_12
XFILLER_68_307 VGND VGND VPWR VPWR sky130_fd_sc_hd__fill_1
XFILLER_3_57 VGND VGND VPWR VPWR sky130_ef_sc_hd__decap_12
XFILLER_67_93 VGND VGND VPWR VPWR sky130_ef_sc_hd__decap_12
XFILLER_64_513 VGND VGND VPWR VPWR sky130_ef_sc_hd__decap_12
XFILLER_17_440 VGND VGND VPWR VPWR sky130_fd_sc_hd__decap_8
XFILLER_32_421 VGND VGND VPWR VPWR sky130_fd_sc_hd__fill_2
XFILLER_83_81 VGND VGND VPWR VPWR sky130_ef_sc_hd__decap_12
XFILLER_32_443 VGND VGND VPWR VPWR sky130_fd_sc_hd__decap_4
XFILLER_80_3 VGND VGND VPWR VPWR sky130_ef_sc_hd__decap_12
XFILLER_59_329 VGND VGND VPWR VPWR sky130_fd_sc_hd__decap_6
XFILLER_67_373 VGND VGND VPWR VPWR sky130_ef_sc_hd__decap_12
XFILLER_27_237 VGND VGND VPWR VPWR sky130_ef_sc_hd__decap_12
XFILLER_82_321 VGND VGND VPWR VPWR sky130_ef_sc_hd__decap_12
XFILLER_82_365 VGND VGND VPWR VPWR sky130_ef_sc_hd__decap_12
XFILLER_35_281 VGND VGND VPWR VPWR sky130_fd_sc_hd__fill_2
XFILLER_35_292 VGND VGND VPWR VPWR sky130_fd_sc_hd__decap_4
XFILLER_50_251 VGND VGND VPWR VPWR sky130_fd_sc_hd__fill_1
XFILLER_12_77 VGND VGND VPWR VPWR sky130_fd_sc_hd__decap_6
XFILLER_88_15 VGND VGND VPWR VPWR sky130_ef_sc_hd__decap_12
XFILLER_2_347 VGND VGND VPWR VPWR sky130_ef_sc_hd__decap_12
XFILLER_77_137 VGND VGND VPWR VPWR sky130_ef_sc_hd__decap_12
Xcby_0__8_.cby_0__1_.mux_right_ipin_0.mux_l2_in_1_ cby_0__8_.cby_0__1_.mux_right_ipin_0.sky130_fd_sc_hd__mux2_1_3_X
+ cby_0__8_.cby_0__1_.mux_right_ipin_0.sky130_fd_sc_hd__mux2_1_2_X cby_0__8_.cby_0__1_.mem_right_ipin_0.mem_out\[1\]
+ VGND VGND VPWR VPWR cby_0__8_.cby_0__1_.mux_right_ipin_0.sky130_fd_sc_hd__mux2_1_6_X
+ sky130_fd_sc_hd__mux2_1
XFILLER_46_513 VGND VGND VPWR VPWR sky130_ef_sc_hd__decap_12
XFILLER_85_181 VGND VGND VPWR VPWR sky130_ef_sc_hd__decap_12
XFILLER_61_505 VGND VGND VPWR VPWR sky130_ef_sc_hd__decap_12
XFILLER_14_421 VGND VGND VPWR VPWR sky130_ef_sc_hd__decap_12
XFILLER_14_410 VGND VGND VPWR VPWR sky130_fd_sc_hd__decap_8
XFILLER_26_270 VGND VGND VPWR VPWR sky130_fd_sc_hd__decap_8
XFILLER_53_51 VGND VGND VPWR VPWR sky130_fd_sc_hd__decap_4
XFILLER_41_273 VGND VGND VPWR VPWR sky130_fd_sc_hd__decap_6
Xclkbuf_4_6_0_prog_clk clknet_0_prog_clk VGND VGND VPWR VPWR clknet_4_6_0_prog_clk
+ sky130_fd_sc_hd__clkbuf_8
XFILLER_1_391 VGND VGND VPWR VPWR sky130_fd_sc_hd__fill_1
XFILLER_49_384 VGND VGND VPWR VPWR sky130_fd_sc_hd__decap_8
XFILLER_64_321 VGND VGND VPWR VPWR sky130_ef_sc_hd__decap_12
XFILLER_64_365 VGND VGND VPWR VPWR sky130_ef_sc_hd__decap_12
XFILLER_17_281 VGND VGND VPWR VPWR sky130_fd_sc_hd__fill_2
XFILLER_17_292 VGND VGND VPWR VPWR sky130_fd_sc_hd__decap_4
XFILLER_32_251 VGND VGND VPWR VPWR sky130_fd_sc_hd__fill_1
XFILLER_20_446 VGND VGND VPWR VPWR sky130_fd_sc_hd__fill_1
XFILLER_58_29 VGND VGND VPWR VPWR sky130_ef_sc_hd__decap_12
XFILLER_59_137 VGND VGND VPWR VPWR sky130_ef_sc_hd__decap_12
XFILLER_67_181 VGND VGND VPWR VPWR sky130_ef_sc_hd__decap_12
XFILLER_43_505 VGND VGND VPWR VPWR sky130_ef_sc_hd__decap_12
XFILLER_82_195 VGND VGND VPWR VPWR sky130_fd_sc_hd__fill_1
XFILLER_90_27 VGND VGND VPWR VPWR sky130_fd_sc_hd__fill_1
XFILLER_70_357 VGND VGND VPWR VPWR sky130_fd_sc_hd__decap_6
XFILLER_23_262 VGND VGND VPWR VPWR sky130_fd_sc_hd__decap_4
X_130_ sb_0__8_.mux_right_track_6.out VGND VGND VPWR VPWR net101 sky130_fd_sc_hd__clkbuf_1
XFILLER_2_133 VGND VGND VPWR VPWR sky130_fd_sc_hd__decap_6
XFILLER_2_188 VGND VGND VPWR VPWR sky130_fd_sc_hd__decap_8
XFILLER_78_413 VGND VGND VPWR VPWR sky130_fd_sc_hd__decap_6
XFILLER_93_405 VGND VGND VPWR VPWR sky130_ef_sc_hd__decap_12
XFILLER_78_457 VGND VGND VPWR VPWR sky130_ef_sc_hd__decap_12
XFILLER_93_449 VGND VGND VPWR VPWR sky130_ef_sc_hd__decap_12
XFILLER_46_321 VGND VGND VPWR VPWR sky130_fd_sc_hd__fill_1
XFILLER_46_365 VGND VGND VPWR VPWR sky130_fd_sc_hd__decap_8
XFILLER_61_335 VGND VGND VPWR VPWR sky130_fd_sc_hd__fill_1
XFILLER_64_83 VGND VGND VPWR VPWR sky130_fd_sc_hd__fill_1
XFILLER_14_251 VGND VGND VPWR VPWR sky130_fd_sc_hd__fill_1
XFILLER_6_472 VGND VGND VPWR VPWR sky130_fd_sc_hd__decap_4
XFILLER_6_494 VGND VGND VPWR VPWR sky130_fd_sc_hd__fill_2
XFILLER_43_3 VGND VGND VPWR VPWR sky130_ef_sc_hd__decap_12
XFILLER_49_181 VGND VGND VPWR VPWR sky130_ef_sc_hd__decap_12
XFILLER_25_505 VGND VGND VPWR VPWR sky130_ef_sc_hd__decap_12
XFILLER_64_195 VGND VGND VPWR VPWR sky130_fd_sc_hd__fill_1
XFILLER_40_519 VGND VGND VPWR VPWR sky130_fd_sc_hd__decap_8
Xcby_0__8_.cby_0__1_.mux_right_ipin_0.mux_l1_in_2_ sb_0__8_.mux_bottom_track_13.out
+ net48 cby_0__8_.cby_0__1_.mem_right_ipin_0.mem_out\[0\] VGND VGND VPWR VPWR cby_0__8_.cby_0__1_.mux_right_ipin_0.sky130_fd_sc_hd__mux2_1_2_X
+ sky130_fd_sc_hd__mux2_1
XFILLER_20_276 VGND VGND VPWR VPWR sky130_fd_sc_hd__fill_1
XFILLER_69_39 VGND VGND VPWR VPWR sky130_ef_sc_hd__decap_12
XFILLER_85_27 VGND VGND VPWR VPWR sky130_ef_sc_hd__decap_12
XFILLER_75_405 VGND VGND VPWR VPWR sky130_ef_sc_hd__decap_12
XFILLER_75_449 VGND VGND VPWR VPWR sky130_ef_sc_hd__decap_12
XFILLER_90_419 VGND VGND VPWR VPWR sky130_fd_sc_hd__fill_1
XFILLER_18_65 VGND VGND VPWR VPWR sky130_ef_sc_hd__decap_12
XFILLER_28_365 VGND VGND VPWR VPWR sky130_fd_sc_hd__decap_8
XFILLER_43_368 VGND VGND VPWR VPWR sky130_fd_sc_hd__decap_4
XFILLER_70_121 VGND VGND VPWR VPWR sky130_ef_sc_hd__decap_12
XFILLER_34_53 VGND VGND VPWR VPWR sky130_ef_sc_hd__decap_12
XFILLER_70_165 VGND VGND VPWR VPWR sky130_ef_sc_hd__decap_12
XFILLER_34_97 VGND VGND VPWR VPWR sky130_ef_sc_hd__decap_12
XFILLER_51_390 VGND VGND VPWR VPWR sky130_fd_sc_hd__fill_2
XFILLER_11_265 VGND VGND VPWR VPWR sky130_fd_sc_hd__decap_4
X_113_ sb_0__8_.mux_right_track_40.out VGND VGND VPWR VPWR net112 sky130_fd_sc_hd__clkbuf_1
XFILLER_11_287 VGND VGND VPWR VPWR sky130_fd_sc_hd__fill_1
XFILLER_7_225 VGND VGND VPWR VPWR sky130_ef_sc_hd__decap_12
XFILLER_50_41 VGND VGND VPWR VPWR sky130_ef_sc_hd__decap_12
XFILLER_50_85 VGND VGND VPWR VPWR sky130_ef_sc_hd__decap_12
XTAP_508 VGND VPWR sky130_fd_sc_hd__tapvpwrvgnd_1
XTAP_519 VGND VPWR sky130_fd_sc_hd__tapvpwrvgnd_1
XFILLER_78_243 VGND VGND VPWR VPWR sky130_fd_sc_hd__decap_8
XFILLER_78_265 VGND VGND VPWR VPWR sky130_ef_sc_hd__decap_12
XFILLER_19_310 VGND VGND VPWR VPWR sky130_fd_sc_hd__decap_4
XFILLER_93_279 VGND VGND VPWR VPWR sky130_fd_sc_hd__fill_1
XFILLER_34_302 VGND VGND VPWR VPWR sky130_fd_sc_hd__decap_6
XFILLER_75_93 VGND VGND VPWR VPWR sky130_ef_sc_hd__decap_12
XFILLER_46_195 VGND VGND VPWR VPWR sky130_fd_sc_hd__fill_1
XFILLER_91_81 VGND VGND VPWR VPWR sky130_ef_sc_hd__decap_12
XFILLER_42_390 VGND VGND VPWR VPWR sky130_fd_sc_hd__decap_4
XFILLER_57_405 VGND VGND VPWR VPWR sky130_ef_sc_hd__decap_12
XFILLER_57_449 VGND VGND VPWR VPWR sky130_fd_sc_hd__fill_2
XFILLER_72_419 VGND VGND VPWR VPWR sky130_fd_sc_hd__fill_1
XFILLER_52_121 VGND VGND VPWR VPWR sky130_ef_sc_hd__decap_12
XFILLER_52_165 VGND VGND VPWR VPWR sky130_ef_sc_hd__decap_12
XFILLER_33_390 VGND VGND VPWR VPWR sky130_fd_sc_hd__fill_2
Xsb_0__8_.mux_right_track_16.mux_l2_in_0_ sb_0__8_.mux_right_track_16.sky130_fd_sc_hd__mux2_1_1_X
+ sb_0__8_.mux_right_track_16.sky130_fd_sc_hd__mux2_1_0_X sb_0__8_.mem_right_track_16.ccff_tail
+ VGND VGND VPWR VPWR sb_0__8_.mux_right_track_16.sky130_fd_sc_hd__mux2_1_2_X sky130_fd_sc_hd__mux2_1
XFILLER_20_77 VGND VGND VPWR VPWR sky130_fd_sc_hd__decap_6
XFILLER_0_467 VGND VGND VPWR VPWR sky130_fd_sc_hd__decap_8
XFILLER_75_279 VGND VGND VPWR VPWR sky130_fd_sc_hd__fill_1
Xcby_0__8_.cby_0__1_.mem_right_ipin_0.sky130_fd_sc_hd__dfrtp_1_3_ clknet_4_0_0_prog_clk
+ cby_0__8_.cby_0__1_.mem_right_ipin_0.mem_out\[2\] net68 VGND VGND VPWR VPWR cby_0__8_.cby_0__1_.mem_right_ipin_0.ccff_tail
+ sky130_fd_sc_hd__dfrtp_1
XFILLER_16_346 VGND VGND VPWR VPWR sky130_fd_sc_hd__decap_4
XFILLER_28_195 VGND VGND VPWR VPWR sky130_fd_sc_hd__fill_1
XFILLER_71_441 VGND VGND VPWR VPWR sky130_fd_sc_hd__decap_6
XFILLER_71_485 VGND VGND VPWR VPWR sky130_ef_sc_hd__decap_12
XFILLER_8_501 VGND VGND VPWR VPWR sky130_fd_sc_hd__decap_8
XFILLER_61_51 VGND VGND VPWR VPWR sky130_fd_sc_hd__decap_4
XANTENNA_6 net7 VGND VGND VPWR VPWR sky130_fd_sc_hd__diode_2
XTAP_305 VGND VPWR sky130_fd_sc_hd__tapvpwrvgnd_1
XFILLER_3_261 VGND VGND VPWR VPWR sky130_ef_sc_hd__decap_12
XTAP_349 VGND VPWR sky130_fd_sc_hd__tapvpwrvgnd_1
XTAP_338 VGND VPWR sky130_fd_sc_hd__tapvpwrvgnd_1
XTAP_327 VGND VPWR sky130_fd_sc_hd__tapvpwrvgnd_1
XTAP_316 VGND VPWR sky130_fd_sc_hd__tapvpwrvgnd_1
XFILLER_39_449 VGND VGND VPWR VPWR sky130_fd_sc_hd__decap_8
XFILLER_54_419 VGND VGND VPWR VPWR sky130_fd_sc_hd__fill_1
XFILLER_47_482 VGND VGND VPWR VPWR sky130_ef_sc_hd__decap_12
XFILLER_81_205 VGND VGND VPWR VPWR sky130_ef_sc_hd__decap_12