* NGSPICE file created from top_tile.ext - technology: sky130A

* Black-box entry subcircuit for sky130_fd_sc_hd__tapvpwrvgnd_1 abstract view
.subckt sky130_fd_sc_hd__tapvpwrvgnd_1 VGND VPWR
.ends

* Black-box entry subcircuit for sky130_fd_sc_hd__decap_6 abstract view
.subckt sky130_fd_sc_hd__decap_6 VGND VNB VPB VPWR
.ends

* Black-box entry subcircuit for sky130_fd_sc_hd__decap_4 abstract view
.subckt sky130_fd_sc_hd__decap_4 VGND VNB VPB VPWR
.ends

* Black-box entry subcircuit for sky130_fd_sc_hd__fill_2 abstract view
.subckt sky130_fd_sc_hd__fill_2 VGND VNB VPB VPWR
.ends

* Black-box entry subcircuit for sky130_fd_sc_hd__decap_3 abstract view
.subckt sky130_fd_sc_hd__decap_3 VGND VNB VPB VPWR
.ends

* Black-box entry subcircuit for sky130_fd_sc_hd__clkbuf_1 abstract view
.subckt sky130_fd_sc_hd__clkbuf_1 A VGND VNB VPB VPWR X
.ends

* Black-box entry subcircuit for sky130_fd_sc_hd__mux2_1 abstract view
.subckt sky130_fd_sc_hd__mux2_1 A0 A1 S VGND VNB VPB VPWR X
.ends

* Black-box entry subcircuit for sky130_fd_sc_hd__buf_4 abstract view
.subckt sky130_fd_sc_hd__buf_4 A VGND VNB VPB VPWR X
.ends

* Black-box entry subcircuit for sky130_fd_sc_hd__fill_1 abstract view
.subckt sky130_fd_sc_hd__fill_1 VGND VNB VPB VPWR
.ends

* Black-box entry subcircuit for sky130_fd_sc_hd__clkdlybuf4s25_1 abstract view
.subckt sky130_fd_sc_hd__clkdlybuf4s25_1 A VGND VNB VPB VPWR X
.ends

* Black-box entry subcircuit for sky130_fd_sc_hd__clkdlybuf4s50_1 abstract view
.subckt sky130_fd_sc_hd__clkdlybuf4s50_1 A VGND VNB VPB VPWR X
.ends

* Black-box entry subcircuit for sky130_fd_sc_hd__clkbuf_16 abstract view
.subckt sky130_fd_sc_hd__clkbuf_16 A VGND VNB VPB VPWR X
.ends

* Black-box entry subcircuit for sky130_fd_sc_hd__diode_2 abstract view
.subckt sky130_fd_sc_hd__diode_2 DIODE VGND VNB VPB VPWR
.ends

* Black-box entry subcircuit for sky130_fd_sc_hd__dfrtp_1 abstract view
.subckt sky130_fd_sc_hd__dfrtp_1 CLK D RESET_B VGND VNB VPB VPWR Q
.ends

* Black-box entry subcircuit for sky130_ef_sc_hd__decap_12 abstract view
.subckt sky130_ef_sc_hd__decap_12 VGND VNB VPB VPWR
.ends

* Black-box entry subcircuit for sky130_fd_sc_hd__clkbuf_2 abstract view
.subckt sky130_fd_sc_hd__clkbuf_2 A VGND VNB VPB VPWR X
.ends

* Black-box entry subcircuit for sky130_fd_sc_hd__conb_1 abstract view
.subckt sky130_fd_sc_hd__conb_1 VGND VNB VPB VPWR HI LO
.ends

* Black-box entry subcircuit for sky130_fd_sc_hd__decap_8 abstract view
.subckt sky130_fd_sc_hd__decap_8 VGND VNB VPB VPWR
.ends

* Black-box entry subcircuit for sky130_fd_sc_hd__buf_12 abstract view
.subckt sky130_fd_sc_hd__buf_12 A VGND VNB VPB VPWR X
.ends

* Black-box entry subcircuit for sky130_fd_sc_hd__sdfrtp_1 abstract view
.subckt sky130_fd_sc_hd__sdfrtp_1 CLK D RESET_B SCD SCE VGND VNB VPB VPWR Q
.ends

* Black-box entry subcircuit for sky130_fd_sc_hd__dfrtp_2 abstract view
.subckt sky130_fd_sc_hd__dfrtp_2 CLK D RESET_B VGND VNB VPB VPWR Q
.ends

* Black-box entry subcircuit for sky130_fd_sc_hd__dlymetal6s2s_1 abstract view
.subckt sky130_fd_sc_hd__dlymetal6s2s_1 A VGND VNB VPB VPWR X
.ends

* Black-box entry subcircuit for sky130_fd_sc_hd__mux2_4 abstract view
.subckt sky130_fd_sc_hd__mux2_4 A0 A1 S VGND VNB VPB VPWR X
.ends

* Black-box entry subcircuit for sky130_fd_sc_hd__dfrtp_4 abstract view
.subckt sky130_fd_sc_hd__dfrtp_4 CLK D RESET_B VGND VNB VPB VPWR Q
.ends

* Black-box entry subcircuit for sky130_fd_sc_hd__or2b_2 abstract view
.subckt sky130_fd_sc_hd__or2b_2 A B_N VGND VNB VPB VPWR X
.ends

* Black-box entry subcircuit for sky130_fd_sc_hd__clkbuf_4 abstract view
.subckt sky130_fd_sc_hd__clkbuf_4 A VGND VNB VPB VPWR X
.ends

* Black-box entry subcircuit for sky130_fd_sc_hd__or2_1 abstract view
.subckt sky130_fd_sc_hd__or2_1 A B VGND VNB VPB VPWR X
.ends

* Black-box entry subcircuit for sky130_fd_sc_hd__clkbuf_8 abstract view
.subckt sky130_fd_sc_hd__clkbuf_8 A VGND VNB VPB VPWR X
.ends

* Black-box entry subcircuit for sky130_fd_sc_hd__mux2_2 abstract view
.subckt sky130_fd_sc_hd__mux2_2 A0 A1 S VGND VNB VPB VPWR X
.ends

* Black-box entry subcircuit for sky130_fd_sc_hd__ebufn_8 abstract view
.subckt sky130_fd_sc_hd__ebufn_8 A TE_B VGND VNB VPB VPWR Z
.ends

* Black-box entry subcircuit for sky130_fd_sc_hd__buf_2 abstract view
.subckt sky130_fd_sc_hd__buf_2 A VGND VNB VPB VPWR X
.ends

* Black-box entry subcircuit for sky130_fd_sc_hd__buf_6 abstract view
.subckt sky130_fd_sc_hd__buf_6 A VGND VNB VPB VPWR X
.ends

* Black-box entry subcircuit for sky130_fd_sc_hd__dlygate4sd3_1 abstract view
.subckt sky130_fd_sc_hd__dlygate4sd3_1 A VGND VNB VPB VPWR X
.ends

* Black-box entry subcircuit for sky130_fd_sc_hd__inv_1 abstract view
.subckt sky130_fd_sc_hd__inv_1 A VGND VNB VPB VPWR Y
.ends

* Black-box entry subcircuit for sky130_fd_sc_hd__buf_8 abstract view
.subckt sky130_fd_sc_hd__buf_8 A VGND VNB VPB VPWR X
.ends

* Black-box entry subcircuit for sky130_fd_sc_hd__sdfrtp_4 abstract view
.subckt sky130_fd_sc_hd__sdfrtp_4 CLK D RESET_B SCD SCE VGND VNB VPB VPWR Q
.ends

.subckt top_tile VGND VPWR bottom_width_0_height_0_subtile_0__pin_cout_0_ bottom_width_0_height_0_subtile_0__pin_inpad_0_
+ bottom_width_0_height_0_subtile_0__pin_reg_out_0_ bottom_width_0_height_0_subtile_1__pin_inpad_0_
+ bottom_width_0_height_0_subtile_2__pin_inpad_0_ bottom_width_0_height_0_subtile_3__pin_inpad_0_
+ ccff_head_1 ccff_head_2 ccff_tail ccff_tail_0 chanx_left_in[0] chanx_left_in[10]
+ chanx_left_in[11] chanx_left_in[12] chanx_left_in[13] chanx_left_in[14] chanx_left_in[15]
+ chanx_left_in[16] chanx_left_in[17] chanx_left_in[18] chanx_left_in[19] chanx_left_in[1]
+ chanx_left_in[20] chanx_left_in[21] chanx_left_in[22] chanx_left_in[23] chanx_left_in[24]
+ chanx_left_in[25] chanx_left_in[26] chanx_left_in[27] chanx_left_in[28] chanx_left_in[29]
+ chanx_left_in[2] chanx_left_in[3] chanx_left_in[4] chanx_left_in[5] chanx_left_in[6]
+ chanx_left_in[7] chanx_left_in[8] chanx_left_in[9] chanx_left_out[0] chanx_left_out[10]
+ chanx_left_out[11] chanx_left_out[12] chanx_left_out[13] chanx_left_out[14] chanx_left_out[15]
+ chanx_left_out[16] chanx_left_out[17] chanx_left_out[18] chanx_left_out[19] chanx_left_out[1]
+ chanx_left_out[20] chanx_left_out[21] chanx_left_out[22] chanx_left_out[23] chanx_left_out[24]
+ chanx_left_out[25] chanx_left_out[26] chanx_left_out[27] chanx_left_out[28] chanx_left_out[29]
+ chanx_left_out[2] chanx_left_out[3] chanx_left_out[4] chanx_left_out[5] chanx_left_out[6]
+ chanx_left_out[7] chanx_left_out[8] chanx_left_out[9] chanx_right_in_0[0] chanx_right_in_0[10]
+ chanx_right_in_0[11] chanx_right_in_0[12] chanx_right_in_0[13] chanx_right_in_0[14]
+ chanx_right_in_0[15] chanx_right_in_0[16] chanx_right_in_0[17] chanx_right_in_0[18]
+ chanx_right_in_0[19] chanx_right_in_0[1] chanx_right_in_0[20] chanx_right_in_0[21]
+ chanx_right_in_0[22] chanx_right_in_0[23] chanx_right_in_0[24] chanx_right_in_0[25]
+ chanx_right_in_0[26] chanx_right_in_0[27] chanx_right_in_0[28] chanx_right_in_0[29]
+ chanx_right_in_0[2] chanx_right_in_0[3] chanx_right_in_0[4] chanx_right_in_0[5]
+ chanx_right_in_0[6] chanx_right_in_0[7] chanx_right_in_0[8] chanx_right_in_0[9]
+ chanx_right_out_0[0] chanx_right_out_0[10] chanx_right_out_0[11] chanx_right_out_0[12]
+ chanx_right_out_0[13] chanx_right_out_0[14] chanx_right_out_0[15] chanx_right_out_0[16]
+ chanx_right_out_0[17] chanx_right_out_0[18] chanx_right_out_0[19] chanx_right_out_0[1]
+ chanx_right_out_0[20] chanx_right_out_0[21] chanx_right_out_0[22] chanx_right_out_0[23]
+ chanx_right_out_0[24] chanx_right_out_0[25] chanx_right_out_0[26] chanx_right_out_0[27]
+ chanx_right_out_0[28] chanx_right_out_0[29] chanx_right_out_0[2] chanx_right_out_0[3]
+ chanx_right_out_0[4] chanx_right_out_0[5] chanx_right_out_0[6] chanx_right_out_0[7]
+ chanx_right_out_0[8] chanx_right_out_0[9] chany_bottom_in[0] chany_bottom_in[10]
+ chany_bottom_in[11] chany_bottom_in[12] chany_bottom_in[13] chany_bottom_in[14]
+ chany_bottom_in[15] chany_bottom_in[16] chany_bottom_in[17] chany_bottom_in[18]
+ chany_bottom_in[19] chany_bottom_in[1] chany_bottom_in[20] chany_bottom_in[21] chany_bottom_in[22]
+ chany_bottom_in[23] chany_bottom_in[24] chany_bottom_in[25] chany_bottom_in[26]
+ chany_bottom_in[27] chany_bottom_in[28] chany_bottom_in[29] chany_bottom_in[2] chany_bottom_in[3]
+ chany_bottom_in[4] chany_bottom_in[5] chany_bottom_in[6] chany_bottom_in[7] chany_bottom_in[8]
+ chany_bottom_in[9] chany_bottom_out[0] chany_bottom_out[10] chany_bottom_out[11]
+ chany_bottom_out[12] chany_bottom_out[13] chany_bottom_out[14] chany_bottom_out[15]
+ chany_bottom_out[16] chany_bottom_out[17] chany_bottom_out[18] chany_bottom_out[19]
+ chany_bottom_out[1] chany_bottom_out[20] chany_bottom_out[21] chany_bottom_out[22]
+ chany_bottom_out[23] chany_bottom_out[24] chany_bottom_out[25] chany_bottom_out[26]
+ chany_bottom_out[27] chany_bottom_out[28] chany_bottom_out[29] chany_bottom_out[2]
+ chany_bottom_out[3] chany_bottom_out[4] chany_bottom_out[5] chany_bottom_out[6]
+ chany_bottom_out[7] chany_bottom_out[8] chany_bottom_out[9] clk0 gfpga_pad_io_soc_dir[0]
+ gfpga_pad_io_soc_dir[1] gfpga_pad_io_soc_dir[2] gfpga_pad_io_soc_dir[3] gfpga_pad_io_soc_in[0]
+ gfpga_pad_io_soc_in[1] gfpga_pad_io_soc_in[2] gfpga_pad_io_soc_in[3] gfpga_pad_io_soc_out[0]
+ gfpga_pad_io_soc_out[1] gfpga_pad_io_soc_out[2] gfpga_pad_io_soc_out[3] isol_n prog_clk
+ prog_reset reset right_bottom_grid_top_width_0_height_0_subtile_0__pin_O_0_ right_bottom_grid_top_width_0_height_0_subtile_0__pin_O_1_
+ right_bottom_grid_top_width_0_height_0_subtile_0__pin_O_2_ right_bottom_grid_top_width_0_height_0_subtile_0__pin_O_3_
+ right_bottom_grid_top_width_0_height_0_subtile_0__pin_O_4_ right_bottom_grid_top_width_0_height_0_subtile_0__pin_O_5_
+ right_bottom_grid_top_width_0_height_0_subtile_0__pin_O_6_ right_bottom_grid_top_width_0_height_0_subtile_0__pin_O_7_
+ right_top_grid_bottom_width_0_height_0_subtile_0__pin_inpad_0_ right_top_grid_bottom_width_0_height_0_subtile_1__pin_inpad_0_
+ right_top_grid_bottom_width_0_height_0_subtile_2__pin_inpad_0_ right_top_grid_bottom_width_0_height_0_subtile_3__pin_inpad_0_
+ right_width_0_height_0_subtile_0__pin_O_10_ right_width_0_height_0_subtile_0__pin_O_11_
+ right_width_0_height_0_subtile_0__pin_O_12_ right_width_0_height_0_subtile_0__pin_O_13_
+ right_width_0_height_0_subtile_0__pin_O_14_ right_width_0_height_0_subtile_0__pin_O_15_
+ right_width_0_height_0_subtile_0__pin_O_8_ right_width_0_height_0_subtile_0__pin_O_9_
+ sc_in sc_out test_enable top_width_0_height_0_subtile_0__pin_O_0_ top_width_0_height_0_subtile_0__pin_O_1_
+ top_width_0_height_0_subtile_0__pin_O_2_ top_width_0_height_0_subtile_0__pin_O_3_
+ top_width_0_height_0_subtile_0__pin_O_4_ top_width_0_height_0_subtile_0__pin_O_5_
+ top_width_0_height_0_subtile_0__pin_O_6_ top_width_0_height_0_subtile_0__pin_O_7_
+ top_width_0_height_0_subtile_0__pin_cin_0_ top_width_0_height_0_subtile_0__pin_reg_in_0_
XTAP_199 VGND VPWR sky130_fd_sc_hd__tapvpwrvgnd_1
XFILLER_39_244 VGND VGND VPWR VPWR sky130_fd_sc_hd__decap_6
XFILLER_50_431 VGND VGND VPWR VPWR sky130_fd_sc_hd__decap_4
XFILLER_52_29 VGND VGND VPWR VPWR sky130_fd_sc_hd__fill_2
XFILLER_22_177 VGND VGND VPWR VPWR sky130_fd_sc_hd__decap_3
Xgrid_clb_1__8_.logical_tile_clb_mode_clb__0.logical_tile_clb_mode_default__fle_0.logical_tile_clb_mode_default__fle_mode_physical__fabric_0.logical_tile_clb_mode_default__fle_mode_physical__fabric_mode_default__frac_logic_0.logical_tile_clb_mode_default__fle_mode_physical__fabric_mode_default__frac_logic_mode_default__frac_lut4_0.frac_lut4_0_.frac_lut4_mux_0_.sky130_fd_sc_hd__buf_2_3_
+ net484 VGND VGND VPWR VPWR grid_clb_1__8_.logical_tile_clb_mode_clb__0.logical_tile_clb_mode_default__fle_0.logical_tile_clb_mode_default__fle_mode_physical__fabric_0.logical_tile_clb_mode_default__fle_mode_physical__fabric_mode_default__frac_logic_0.direct_interc_0_.in
+ sky130_fd_sc_hd__clkbuf_1
Xgrid_clb_1__8_.logical_tile_clb_mode_clb__0.logical_tile_clb_mode_default__fle_1.logical_tile_clb_mode_default__fle_mode_physical__fabric_0.logical_tile_clb_mode_default__fle_mode_physical__fabric_mode_default__frac_logic_0.logical_tile_clb_mode_default__fle_mode_physical__fabric_mode_default__frac_logic_mode_default__frac_lut4_0.frac_lut4_0_.frac_lut4_mux_0_.mux_l4_in_0_
+ grid_clb_1__8_.logical_tile_clb_mode_clb__0.logical_tile_clb_mode_default__fle_1.logical_tile_clb_mode_default__fle_mode_physical__fabric_0.logical_tile_clb_mode_default__fle_mode_physical__fabric_mode_default__frac_logic_0.logical_tile_clb_mode_default__fle_mode_physical__fabric_mode_default__frac_logic_mode_default__frac_lut4_0.frac_lut4_0_.frac_lut4_mux_0_.sky130_fd_sc_hd__mux2_1_13_X
+ grid_clb_1__8_.logical_tile_clb_mode_clb__0.logical_tile_clb_mode_default__fle_1.logical_tile_clb_mode_default__fle_mode_physical__fabric_0.logical_tile_clb_mode_default__fle_mode_physical__fabric_mode_default__frac_logic_0.logical_tile_clb_mode_default__fle_mode_physical__fabric_mode_default__frac_logic_mode_default__frac_lut4_0.frac_lut4_0_.frac_lut4_mux_0_.sky130_fd_sc_hd__mux2_1_12_X
+ grid_clb_1__8_.logical_tile_clb_mode_clb__0.logical_tile_clb_mode_default__fle_1.logical_tile_clb_mode_default__fle_mode_physical__fabric_0.logical_tile_clb_mode_default__fle_mode_physical__fabric_mode_default__frac_logic_0.logical_tile_clb_mode_default__fle_mode_physical__fabric_mode_default__frac_logic_mode_default__frac_lut4_0.frac_lut4_0_.sky130_fd_sc_hd__buf_2_3_X
+ VGND VGND VPWR VPWR grid_clb_1__8_.logical_tile_clb_mode_clb__0.logical_tile_clb_mode_default__fle_1.logical_tile_clb_mode_default__fle_mode_physical__fabric_0.logical_tile_clb_mode_default__fle_mode_physical__fabric_mode_default__frac_logic_0.logical_tile_clb_mode_default__fle_mode_physical__fabric_mode_default__frac_logic_mode_default__frac_lut4_0.frac_lut4_0_.frac_lut4_mux_0_.sky130_fd_sc_hd__mux2_1_14_X
+ sky130_fd_sc_hd__mux2_1
Xsb_1__8_.mux_left_track_45.sky130_fd_sc_hd__buf_4_0_ sb_1__8_.mux_left_track_45.sky130_fd_sc_hd__mux2_1_4_X
+ VGND VGND VPWR VPWR sb_1__8_.mux_left_track_45.out sky130_fd_sc_hd__buf_4
XFILLER_89_111 VGND VGND VPWR VPWR sky130_fd_sc_hd__fill_1
Xhold351 cbx_1__8_.cbx_1__8_.ccff_head VGND VGND VPWR VPWR net760 sky130_fd_sc_hd__clkdlybuf4s25_1
Xhold340 sb_1__8_.mem_bottom_track_51.ccff_tail VGND VGND VPWR VPWR net749 sky130_fd_sc_hd__clkdlybuf4s25_1
Xhold362 cby_1__8_.mem_right_ipin_5.mem_out\[0\] VGND VGND VPWR VPWR net771 sky130_fd_sc_hd__clkdlybuf4s50_1
Xhold373 grid_clb_1__8_.logical_tile_clb_mode_clb__0.logical_tile_clb_mode_default__fle_1.logical_tile_clb_mode_default__fle_mode_physical__fabric_0.logical_tile_clb_mode_default__fle_mode_physical__fabric_mode_default__frac_logic_0.ccff_tail
+ VGND VGND VPWR VPWR net782 sky130_fd_sc_hd__clkdlybuf4s25_1
Xhold395 grid_clb_1__8_.logical_tile_clb_mode_clb__0.logical_tile_clb_mode_default__fle_1.logical_tile_clb_mode_default__fle_mode_physical__fabric_0.mem_ff_0_D_0.ccff_tail
+ VGND VGND VPWR VPWR net804 sky130_fd_sc_hd__clkdlybuf4s25_1
Xclkbuf_leaf_53_prog_clk clknet_3_1__leaf_prog_clk VGND VGND VPWR VPWR clknet_leaf_53_prog_clk
+ sky130_fd_sc_hd__clkbuf_16
XANTENNA_sb_1__8_.mux_right_track_10.mux_l1_in_3__S sb_1__8_.mem_right_track_10.mem_out\[0\]
+ VGND VGND VPWR VPWR sky130_fd_sc_hd__diode_2
Xhold384 sb_1__8_.mem_right_track_12.ccff_tail VGND VGND VPWR VPWR net793 sky130_fd_sc_hd__clkdlybuf4s25_1
Xsb_1__8_.mem_left_track_11.sky130_fd_sc_hd__dfrtp_1_2_ clknet_leaf_9_prog_clk net959
+ net252 VGND VGND VPWR VPWR sb_1__8_.mem_left_track_11.mem_out\[2\] sky130_fd_sc_hd__dfrtp_1
XFILLER_92_309 VGND VGND VPWR VPWR sky130_fd_sc_hd__fill_2
XFILLER_93_25 VGND VGND VPWR VPWR sky130_ef_sc_hd__decap_12
XFILLER_45_203 VGND VGND VPWR VPWR sky130_fd_sc_hd__fill_2
XFILLER_45_225 VGND VGND VPWR VPWR sky130_fd_sc_hd__fill_2
XFILLER_26_483 VGND VGND VPWR VPWR sky130_fd_sc_hd__fill_2
XFILLER_26_85 VGND VGND VPWR VPWR sky130_fd_sc_hd__decap_4
Xcbx_1__8_.cbx_1__8_.mux_top_ipin_14.sky130_fd_sc_hd__buf_4_0_ net464 VGND VGND VPWR
+ VPWR cbx_1__8_.bottom_grid_top_width_0_height_0_subtile_0__pin_I3i_0_ sky130_fd_sc_hd__clkbuf_1
XFILLER_13_166 VGND VGND VPWR VPWR sky130_fd_sc_hd__fill_2
XFILLER_13_155 VGND VGND VPWR VPWR sky130_fd_sc_hd__fill_2
XANTENNA_cby_1__8_.mux_right_ipin_4.mux_l2_in_2__A0 net74 VGND VGND VPWR VPWR sky130_fd_sc_hd__diode_2
X_294_ net14 VGND VGND VPWR VPWR net146 sky130_fd_sc_hd__clkbuf_2
Xcbx_1__8_.cbx_1__8_.mux_top_ipin_2.mux_l1_in_2_ sb_1__8_.mux_left_track_13.out net18
+ cbx_1__8_.cbx_1__8_.mem_top_ipin_2.mem_out\[0\] VGND VGND VPWR VPWR cbx_1__8_.cbx_1__8_.mux_top_ipin_2.sky130_fd_sc_hd__mux2_1_2_X
+ sky130_fd_sc_hd__mux2_1
XFILLER_5_310 VGND VGND VPWR VPWR sky130_fd_sc_hd__decap_4
XFILLER_5_343 VGND VGND VPWR VPWR sky130_fd_sc_hd__fill_2
XANTENNA_cbx_1__8_.cbx_1__8_.mux_bottom_ipin_0.mux_l1_in_4__A0 sb_1__8_.mux_left_track_37.out
+ VGND VGND VPWR VPWR sky130_fd_sc_hd__diode_2
XANTENNA_sb_1__8_.mux_right_track_36.mux_l1_in_1__A1 net83 VGND VGND VPWR VPWR sky130_fd_sc_hd__diode_2
XANTENNA_sb_1__8_.mem_left_track_5.sky130_fd_sc_hd__dfrtp_1_0__RESET_B net253 VGND
+ VGND VPWR VPWR sky130_fd_sc_hd__diode_2
XFILLER_95_169 VGND VGND VPWR VPWR sky130_fd_sc_hd__fill_2
XFILLER_83_309 VGND VGND VPWR VPWR sky130_ef_sc_hd__decap_12
XFILLER_64_501 VGND VGND VPWR VPWR sky130_fd_sc_hd__decap_4
XFILLER_36_236 VGND VGND VPWR VPWR sky130_fd_sc_hd__fill_2
XFILLER_36_247 VGND VGND VPWR VPWR sky130_fd_sc_hd__fill_2
XFILLER_36_269 VGND VGND VPWR VPWR sky130_fd_sc_hd__fill_2
XFILLER_32_431 VGND VGND VPWR VPWR sky130_fd_sc_hd__decap_4
XFILLER_32_497 VGND VGND VPWR VPWR sky130_fd_sc_hd__decap_4
Xcbx_1__8_.cbx_1__8_.mux_top_ipin_7.mux_l3_in_0_ net439 cbx_1__8_.cbx_1__8_.mux_top_ipin_7.sky130_fd_sc_hd__mux2_1_3_X
+ cbx_1__8_.cbx_1__8_.mem_top_ipin_7.mem_out\[2\] VGND VGND VPWR VPWR cbx_1__8_.cbx_1__8_.mux_top_ipin_7.sky130_fd_sc_hd__mux2_1_7_X
+ sky130_fd_sc_hd__mux2_1
XANTENNA__304__A net5 VGND VGND VPWR VPWR sky130_fd_sc_hd__diode_2
XFILLER_74_309 VGND VGND VPWR VPWR sky130_fd_sc_hd__fill_1
XFILLER_27_225 VGND VGND VPWR VPWR sky130_fd_sc_hd__fill_2
XFILLER_27_236 VGND VGND VPWR VPWR sky130_fd_sc_hd__fill_1
XFILLER_42_228 VGND VGND VPWR VPWR sky130_fd_sc_hd__decap_3
XFILLER_35_291 VGND VGND VPWR VPWR sky130_fd_sc_hd__fill_1
XANTENNA_cbx_1__8_.cbx_1__8_.mux_top_ipin_3.mux_l2_in_2__A0 net30 VGND VGND VPWR VPWR
+ sky130_fd_sc_hd__diode_2
XFILLER_50_250 VGND VGND VPWR VPWR sky130_fd_sc_hd__fill_2
XFILLER_23_486 VGND VGND VPWR VPWR sky130_fd_sc_hd__decap_4
XFILLER_50_261 VGND VGND VPWR VPWR sky130_fd_sc_hd__fill_1
XFILLER_12_21 VGND VGND VPWR VPWR sky130_fd_sc_hd__decap_3
Xcby_1__8_.mux_right_ipin_5.mux_l2_in_3__300 VGND VGND VPWR VPWR net300 cby_1__8_.mux_right_ipin_5.mux_l2_in_3__300/LO
+ sky130_fd_sc_hd__conb_1
XFILLER_88_25 VGND VGND VPWR VPWR sky130_fd_sc_hd__decap_3
Xhold170 sb_1__8_.mem_left_track_3.ccff_tail VGND VGND VPWR VPWR net579 sky130_fd_sc_hd__clkdlybuf4s25_1
Xcby_1__8_.mux_right_ipin_6.mux_l2_in_1_ cby_1__8_.mux_right_ipin_6.sky130_fd_sc_hd__mux2_1_3_X
+ cby_1__8_.mux_right_ipin_6.sky130_fd_sc_hd__mux2_1_2_X cby_1__8_.mem_right_ipin_6.mem_out\[1\]
+ VGND VGND VPWR VPWR cby_1__8_.mux_right_ipin_6.sky130_fd_sc_hd__mux2_1_6_X sky130_fd_sc_hd__mux2_1
Xhold181 grid_clb_1__8_.logical_tile_clb_mode_clb__0.logical_tile_clb_mode_default__fle_2.logical_tile_clb_mode_default__fle_mode_physical__fabric_0.mem_ff_0_D_0.ccff_tail
+ VGND VGND VPWR VPWR net590 sky130_fd_sc_hd__clkdlybuf4s25_1
Xhold192 grid_clb_1__8_.logical_tile_clb_mode_clb__0.logical_tile_clb_mode_default__fle_3.ccff_tail
+ VGND VGND VPWR VPWR net601 sky130_fd_sc_hd__clkdlybuf4s25_1
Xcbx_1__8_.cbx_1__8_.mux_bottom_ipin_0.mux_l1_in_3_ net42 net11 cbx_1__8_.cbx_1__8_.mem_bottom_ipin_0.mem_out\[0\]
+ VGND VGND VPWR VPWR cbx_1__8_.cbx_1__8_.mux_bottom_ipin_0.sky130_fd_sc_hd__mux2_1_3_X
+ sky130_fd_sc_hd__mux2_1
XANTENNA_cby_1__8_.mem_right_ipin_1.sky130_fd_sc_hd__dfrtp_1_1__RESET_B net231 VGND
+ VGND VPWR VPWR sky130_fd_sc_hd__diode_2
XFILLER_77_169 VGND VGND VPWR VPWR sky130_fd_sc_hd__decap_8
XFILLER_18_203 VGND VGND VPWR VPWR sky130_fd_sc_hd__decap_3
Xgrid_clb_1__8_.logical_tile_clb_mode_clb__0.logical_tile_clb_mode_default__fle_4.logical_tile_clb_mode_default__fle_mode_physical__fabric_0.logical_tile_clb_mode_default__fle_mode_physical__fabric_mode_default__frac_logic_0.logical_tile_clb_mode_default__fle_mode_physical__fabric_mode_default__frac_logic_mode_default__frac_lut4_0.frac_lut4_0_.frac_lut4_mux_0_.mux_l1_in_7_
+ grid_clb_1__8_.logical_tile_clb_mode_clb__0.logical_tile_clb_mode_default__fle_4.logical_tile_clb_mode_default__fle_mode_physical__fabric_0.logical_tile_clb_mode_default__fle_mode_physical__fabric_mode_default__frac_logic_0.logical_tile_clb_mode_default__fle_mode_physical__fabric_mode_default__frac_logic_mode_default__frac_lut4_0.frac_lut4_0_.frac_lut4_mux_0_.in\[15\]
+ grid_clb_1__8_.logical_tile_clb_mode_clb__0.logical_tile_clb_mode_default__fle_4.logical_tile_clb_mode_default__fle_mode_physical__fabric_0.logical_tile_clb_mode_default__fle_mode_physical__fabric_mode_default__frac_logic_0.logical_tile_clb_mode_default__fle_mode_physical__fabric_mode_default__frac_logic_mode_default__frac_lut4_0.frac_lut4_0_.frac_lut4_mux_0_.in\[14\]
+ grid_clb_1__8_.logical_tile_clb_mode_clb__0.logical_tile_clb_mode_default__fle_4.logical_tile_clb_mode_default__fle_mode_physical__fabric_0.logical_tile_clb_mode_default__fle_mode_physical__fabric_mode_default__frac_logic_0.logical_tile_clb_mode_default__fle_mode_physical__fabric_mode_default__frac_logic_mode_default__frac_lut4_0.frac_lut4_0_.sky130_fd_sc_hd__buf_2_0_X
+ VGND VGND VPWR VPWR grid_clb_1__8_.logical_tile_clb_mode_clb__0.logical_tile_clb_mode_default__fle_4.logical_tile_clb_mode_default__fle_mode_physical__fabric_0.logical_tile_clb_mode_default__fle_mode_physical__fabric_mode_default__frac_logic_0.logical_tile_clb_mode_default__fle_mode_physical__fabric_mode_default__frac_logic_mode_default__frac_lut4_0.frac_lut4_0_.frac_lut4_mux_0_.sky130_fd_sc_hd__mux2_1_7_X
+ sky130_fd_sc_hd__mux2_1
XFILLER_73_331 VGND VGND VPWR VPWR sky130_fd_sc_hd__fill_2
XFILLER_61_515 VGND VGND VPWR VPWR sky130_fd_sc_hd__decap_4
XFILLER_53_61 VGND VGND VPWR VPWR sky130_fd_sc_hd__fill_1
X_346_ sb_1__8_.mux_bottom_track_15.out VGND VGND VPWR VPWR net190 sky130_fd_sc_hd__clkbuf_2
X_277_ net38 VGND VGND VPWR VPWR net120 sky130_fd_sc_hd__clkbuf_2
XANTENNA_clkbuf_leaf_23_prog_clk_A clknet_3_7__leaf_prog_clk VGND VGND VPWR VPWR sky130_fd_sc_hd__diode_2
XFILLER_5_184 VGND VGND VPWR VPWR sky130_fd_sc_hd__fill_1
Xgrid_clb_1__8_.logical_tile_clb_mode_clb__0.logical_tile_clb_mode_default__fle_0.logical_tile_clb_mode_default__fle_mode_physical__fabric_0.mux_ff_1_D_0.mux_l1_in_0_
+ grid_clb_1__8_.logical_tile_clb_mode_clb__0.logical_tile_clb_mode_default__fle_0.logical_tile_clb_mode_default__fle_mode_physical__fabric_0.direct_interc_11_.in
+ net485 grid_clb_1__8_.logical_tile_clb_mode_clb__0.logical_tile_clb_mode_default__fle_0.logical_tile_clb_mode_default__fle_mode_physical__fabric_0.mem_ff_1_D_0.mem_out\[0\]
+ VGND VGND VPWR VPWR grid_clb_1__8_.logical_tile_clb_mode_clb__0.logical_tile_clb_mode_default__fle_0.logical_tile_clb_mode_default__fle_mode_physical__fabric_0.mux_ff_1_D_0.sky130_fd_sc_hd__mux2_1_0_X
+ sky130_fd_sc_hd__mux2_1
XFILLER_56_309 VGND VGND VPWR VPWR sky130_fd_sc_hd__fill_2
XFILLER_1_390 VGND VGND VPWR VPWR sky130_fd_sc_hd__fill_2
Xcbx_1__8_.cbx_1__8_.mux_top_ipin_11.mux_l2_in_0_ cbx_1__8_.cbx_1__8_.mux_top_ipin_11.sky130_fd_sc_hd__mux2_1_1_X
+ cbx_1__8_.cbx_1__8_.mux_top_ipin_11.sky130_fd_sc_hd__mux2_1_0_X cbx_1__8_.cbx_1__8_.mem_top_ipin_11.mem_out\[1\]
+ VGND VGND VPWR VPWR cbx_1__8_.cbx_1__8_.mux_top_ipin_11.sky130_fd_sc_hd__mux2_1_3_X
+ sky130_fd_sc_hd__mux2_1
Xgrid_clb_1__8_.logical_tile_clb_mode_clb__0.logical_tile_clb_mode_default__fle_1.logical_tile_clb_mode_default__fle_mode_physical__fabric_0.logical_tile_clb_mode_default__fle_mode_physical__fabric_mode_default__frac_logic_0.logical_tile_clb_mode_default__fle_mode_physical__fabric_mode_default__frac_logic_mode_default__frac_lut4_0.frac_lut4_0_.frac_lut4_mux_0_.mux_l3_in_1_
+ grid_clb_1__8_.logical_tile_clb_mode_clb__0.logical_tile_clb_mode_default__fle_1.logical_tile_clb_mode_default__fle_mode_physical__fabric_0.logical_tile_clb_mode_default__fle_mode_physical__fabric_mode_default__frac_logic_0.logical_tile_clb_mode_default__fle_mode_physical__fabric_mode_default__frac_logic_mode_default__frac_lut4_0.frac_lut4_0_.frac_lut4_mux_0_.sky130_fd_sc_hd__mux2_1_11_X
+ grid_clb_1__8_.logical_tile_clb_mode_clb__0.logical_tile_clb_mode_default__fle_1.logical_tile_clb_mode_default__fle_mode_physical__fabric_0.logical_tile_clb_mode_default__fle_mode_physical__fabric_mode_default__frac_logic_0.logical_tile_clb_mode_default__fle_mode_physical__fabric_mode_default__frac_logic_mode_default__frac_lut4_0.frac_lut4_0_.frac_lut4_mux_0_.sky130_fd_sc_hd__mux2_1_10_X
+ net436 VGND VGND VPWR VPWR grid_clb_1__8_.logical_tile_clb_mode_clb__0.logical_tile_clb_mode_default__fle_1.logical_tile_clb_mode_default__fle_mode_physical__fabric_0.logical_tile_clb_mode_default__fle_mode_physical__fabric_mode_default__frac_logic_0.logical_tile_clb_mode_default__fle_mode_physical__fabric_mode_default__frac_logic_mode_default__frac_lut4_0.frac_lut4_0_.frac_lut4_mux_0_.sky130_fd_sc_hd__mux2_1_13_X
+ sky130_fd_sc_hd__mux2_1
XFILLER_32_272 VGND VGND VPWR VPWR sky130_fd_sc_hd__decap_8
Xoutput220 net220 VGND VGND VPWR VPWR top_width_0_height_0_subtile_0__pin_O_1_ sky130_fd_sc_hd__buf_12
XFILLER_87_412 VGND VGND VPWR VPWR sky130_fd_sc_hd__fill_1
Xgrid_clb_1__8_.logical_tile_clb_mode_clb__0.logical_tile_clb_mode_default__fle_4.logical_tile_clb_mode_default__fle_mode_physical__fabric_0.logical_tile_clb_mode_default__fle_mode_physical__fabric_mode_default__frac_logic_0.logical_tile_clb_mode_default__fle_mode_physical__fabric_mode_default__frac_logic_mode_default__frac_lut4_0.frac_lut4_0_.sky130_fd_sc_hd__buf_2_0_
+ cby_1__8_.left_grid_right_width_0_height_0_subtile_0__pin_I4_0_ VGND VGND VPWR VPWR
+ grid_clb_1__8_.logical_tile_clb_mode_clb__0.logical_tile_clb_mode_default__fle_4.logical_tile_clb_mode_default__fle_mode_physical__fabric_0.logical_tile_clb_mode_default__fle_mode_physical__fabric_mode_default__frac_logic_0.logical_tile_clb_mode_default__fle_mode_physical__fabric_mode_default__frac_logic_mode_default__frac_lut4_0.frac_lut4_0_.sky130_fd_sc_hd__buf_2_0_X
+ sky130_fd_sc_hd__buf_4
XFILLER_87_445 VGND VGND VPWR VPWR sky130_fd_sc_hd__fill_1
Xcbx_1__8_.cbx_1__8_.mem_bottom_ipin_0.sky130_fd_sc_hd__dfrtp_1_3_ clknet_leaf_15_prog_clk
+ net922 net259 VGND VGND VPWR VPWR cbx_1__8_.cbx_1__8_.mem_bottom_ipin_0.ccff_tail
+ sky130_fd_sc_hd__dfrtp_1
Xsb_1__8_.mem_right_track_2.sky130_fd_sc_hd__dfrtp_1_3_ clknet_leaf_35_prog_clk net977
+ net263 VGND VGND VPWR VPWR sb_1__8_.mem_right_track_2.ccff_tail sky130_fd_sc_hd__dfrtp_1
XFILLER_28_523 VGND VGND VPWR VPWR sky130_fd_sc_hd__fill_2
XFILLER_43_515 VGND VGND VPWR VPWR sky130_fd_sc_hd__decap_4
XFILLER_82_194 VGND VGND VPWR VPWR sky130_fd_sc_hd__fill_2
XFILLER_70_378 VGND VGND VPWR VPWR sky130_fd_sc_hd__fill_2
Xgrid_clb_1__8_.logical_tile_clb_mode_clb__0.logical_tile_clb_mode_default__fle_1.logical_tile_clb_mode_default__fle_mode_physical__fabric_0.mem_ff_1_D_0.sky130_fd_sc_hd__dfrtp_1_1_
+ clknet_leaf_17_prog_clk net788 net261 VGND VGND VPWR VPWR grid_clb_1__8_.logical_tile_clb_mode_clb__0.logical_tile_clb_mode_default__fle_1.ccff_tail
+ sky130_fd_sc_hd__dfrtp_1
XFILLER_70_389 VGND VGND VPWR VPWR sky130_fd_sc_hd__decap_3
XFILLER_7_449 VGND VGND VPWR VPWR sky130_fd_sc_hd__fill_2
Xgrid_clb_1__8_.logical_tile_clb_mode_clb__0.logical_tile_clb_mode_default__fle_6.logical_tile_clb_mode_default__fle_mode_physical__fabric_0.mem_fabric_out_1.sky130_fd_sc_hd__dfrtp_1_1_
+ clknet_leaf_41_prog_clk net748 net247 VGND VGND VPWR VPWR grid_clb_1__8_.logical_tile_clb_mode_clb__0.logical_tile_clb_mode_default__fle_6.logical_tile_clb_mode_default__fle_mode_physical__fabric_0.mem_fabric_out_1.ccff_tail
+ sky130_fd_sc_hd__dfrtp_1
Xcby_1__8_.mux_right_ipin_12.mux_l3_in_0_ cby_1__8_.mux_right_ipin_12.sky130_fd_sc_hd__mux2_1_6_X
+ cby_1__8_.mux_right_ipin_12.sky130_fd_sc_hd__mux2_1_5_X cby_1__8_.mem_right_ipin_12.mem_out\[2\]
+ VGND VGND VPWR VPWR cby_1__8_.mux_right_ipin_12.sky130_fd_sc_hd__mux2_1_9_X sky130_fd_sc_hd__mux2_1
XFILLER_2_143 VGND VGND VPWR VPWR sky130_fd_sc_hd__fill_2
XFILLER_2_154 VGND VGND VPWR VPWR sky130_fd_sc_hd__decap_4
XANTENNA_input55_A chanx_right_in_0[2] VGND VGND VPWR VPWR sky130_fd_sc_hd__diode_2
XFILLER_38_309 VGND VGND VPWR VPWR sky130_fd_sc_hd__fill_2
XFILLER_48_50 VGND VGND VPWR VPWR sky130_fd_sc_hd__decap_4
XFILLER_93_415 VGND VGND VPWR VPWR sky130_fd_sc_hd__decap_8
Xcbx_1__8_.cbx_1__8_.mux_top_ipin_7.mux_l2_in_1_ net438 cbx_1__8_.cbx_1__8_.mux_top_ipin_7.sky130_fd_sc_hd__mux2_1_2_X
+ cbx_1__8_.cbx_1__8_.mem_top_ipin_7.mem_out\[1\] VGND VGND VPWR VPWR cbx_1__8_.cbx_1__8_.mux_top_ipin_7.sky130_fd_sc_hd__mux2_1_4_X
+ sky130_fd_sc_hd__mux2_1
XFILLER_93_459 VGND VGND VPWR VPWR sky130_fd_sc_hd__decap_4
XANTENNA_cby_1__8_.mem_right_ipin_7.sky130_fd_sc_hd__dfrtp_1_1__RESET_B net231 VGND
+ VGND VPWR VPWR sky130_fd_sc_hd__diode_2
XFILLER_0_57 VGND VGND VPWR VPWR sky130_fd_sc_hd__fill_1
XANTENNA_output211_A net211 VGND VGND VPWR VPWR sky130_fd_sc_hd__diode_2
XFILLER_64_82 VGND VGND VPWR VPWR sky130_fd_sc_hd__fill_2
XFILLER_61_334 VGND VGND VPWR VPWR sky130_fd_sc_hd__fill_2
XFILLER_9_11 VGND VGND VPWR VPWR sky130_fd_sc_hd__fill_2
XANTENNA_grid_clb_1__8_.logical_tile_clb_mode_clb__0.logical_tile_clb_mode_default__fle_5.logical_tile_clb_mode_default__fle_mode_physical__fabric_0.logical_tile_clb_mode_default__fle_mode_physical__fabric_mode_default__frac_logic_0.logical_tile_clb_mode_default__fle_mode_physical__fabric_mode_default__frac_logic_mode_default__frac_lut4_0.frac_lut4_0_.frac_lut4_mux_0_.mux_l1_in_7__S