* NGSPICE file created from top_left_tile.ext - technology: sky130A

* Black-box entry subcircuit for sky130_fd_sc_hd__decap_4 abstract view
.subckt sky130_fd_sc_hd__decap_4 VGND VNB VPB VPWR
.ends

* Black-box entry subcircuit for sky130_fd_sc_hd__fill_2 abstract view
.subckt sky130_fd_sc_hd__fill_2 VGND VNB VPB VPWR
.ends

* Black-box entry subcircuit for sky130_fd_sc_hd__diode_2 abstract view
.subckt sky130_fd_sc_hd__diode_2 DIODE VGND VNB VPB VPWR
.ends

* Black-box entry subcircuit for sky130_fd_sc_hd__tapvpwrvgnd_1 abstract view
.subckt sky130_fd_sc_hd__tapvpwrvgnd_1 VGND VPWR
.ends

* Black-box entry subcircuit for sky130_ef_sc_hd__decap_12 abstract view
.subckt sky130_ef_sc_hd__decap_12 VGND VNB VPB VPWR
.ends

* Black-box entry subcircuit for sky130_fd_sc_hd__clkdlybuf4s25_1 abstract view
.subckt sky130_fd_sc_hd__clkdlybuf4s25_1 A VGND VNB VPB VPWR X
.ends

* Black-box entry subcircuit for sky130_fd_sc_hd__fill_1 abstract view
.subckt sky130_fd_sc_hd__fill_1 VGND VNB VPB VPWR
.ends

* Black-box entry subcircuit for sky130_fd_sc_hd__decap_8 abstract view
.subckt sky130_fd_sc_hd__decap_8 VGND VNB VPB VPWR
.ends

* Black-box entry subcircuit for sky130_fd_sc_hd__buf_4 abstract view
.subckt sky130_fd_sc_hd__buf_4 A VGND VNB VPB VPWR X
.ends

* Black-box entry subcircuit for sky130_fd_sc_hd__clkdlybuf4s50_1 abstract view
.subckt sky130_fd_sc_hd__clkdlybuf4s50_1 A VGND VNB VPB VPWR X
.ends

* Black-box entry subcircuit for sky130_fd_sc_hd__mux2_1 abstract view
.subckt sky130_fd_sc_hd__mux2_1 A0 A1 S VGND VNB VPB VPWR X
.ends

* Black-box entry subcircuit for sky130_fd_sc_hd__conb_1 abstract view
.subckt sky130_fd_sc_hd__conb_1 VGND VNB VPB VPWR HI LO
.ends

* Black-box entry subcircuit for sky130_fd_sc_hd__decap_6 abstract view
.subckt sky130_fd_sc_hd__decap_6 VGND VNB VPB VPWR
.ends

* Black-box entry subcircuit for sky130_fd_sc_hd__clkbuf_1 abstract view
.subckt sky130_fd_sc_hd__clkbuf_1 A VGND VNB VPB VPWR X
.ends

* Black-box entry subcircuit for sky130_fd_sc_hd__dfrtp_1 abstract view
.subckt sky130_fd_sc_hd__dfrtp_1 CLK D RESET_B VGND VNB VPB VPWR Q
.ends

* Black-box entry subcircuit for sky130_fd_sc_hd__clkbuf_2 abstract view
.subckt sky130_fd_sc_hd__clkbuf_2 A VGND VNB VPB VPWR X
.ends

* Black-box entry subcircuit for sky130_fd_sc_hd__decap_3 abstract view
.subckt sky130_fd_sc_hd__decap_3 VGND VNB VPB VPWR
.ends

* Black-box entry subcircuit for sky130_fd_sc_hd__buf_12 abstract view
.subckt sky130_fd_sc_hd__buf_12 A VGND VNB VPB VPWR X
.ends

* Black-box entry subcircuit for sky130_fd_sc_hd__clkbuf_8 abstract view
.subckt sky130_fd_sc_hd__clkbuf_8 A VGND VNB VPB VPWR X
.ends

* Black-box entry subcircuit for sky130_fd_sc_hd__dlymetal6s2s_1 abstract view
.subckt sky130_fd_sc_hd__dlymetal6s2s_1 A VGND VNB VPB VPWR X
.ends

* Black-box entry subcircuit for sky130_fd_sc_hd__dfrtp_2 abstract view
.subckt sky130_fd_sc_hd__dfrtp_2 CLK D RESET_B VGND VNB VPB VPWR Q
.ends

* Black-box entry subcircuit for sky130_fd_sc_hd__dfrtp_4 abstract view
.subckt sky130_fd_sc_hd__dfrtp_4 CLK D RESET_B VGND VNB VPB VPWR Q
.ends

* Black-box entry subcircuit for sky130_fd_sc_hd__inv_1 abstract view
.subckt sky130_fd_sc_hd__inv_1 A VGND VNB VPB VPWR Y
.ends

* Black-box entry subcircuit for sky130_fd_sc_hd__ebufn_8 abstract view
.subckt sky130_fd_sc_hd__ebufn_8 A TE_B VGND VNB VPB VPWR Z
.ends

* Black-box entry subcircuit for sky130_fd_sc_hd__or2b_2 abstract view
.subckt sky130_fd_sc_hd__or2b_2 A B_N VGND VNB VPB VPWR X
.ends

* Black-box entry subcircuit for sky130_fd_sc_hd__dlygate4sd3_1 abstract view
.subckt sky130_fd_sc_hd__dlygate4sd3_1 A VGND VNB VPB VPWR X
.ends

* Black-box entry subcircuit for sky130_fd_sc_hd__clkbuf_16 abstract view
.subckt sky130_fd_sc_hd__clkbuf_16 A VGND VNB VPB VPWR X
.ends

* Black-box entry subcircuit for sky130_fd_sc_hd__clkbuf_4 abstract view
.subckt sky130_fd_sc_hd__clkbuf_4 A VGND VNB VPB VPWR X
.ends

* Black-box entry subcircuit for sky130_fd_sc_hd__buf_2 abstract view
.subckt sky130_fd_sc_hd__buf_2 A VGND VNB VPB VPWR X
.ends

* Black-box entry subcircuit for sky130_fd_sc_hd__buf_6 abstract view
.subckt sky130_fd_sc_hd__buf_6 A VGND VNB VPB VPWR X
.ends

.subckt top_left_tile VGND VPWR ccff_head ccff_head_0 ccff_tail ccff_tail_0 chanx_right_in[0]
+ chanx_right_in[10] chanx_right_in[11] chanx_right_in[12] chanx_right_in[13] chanx_right_in[14]
+ chanx_right_in[15] chanx_right_in[16] chanx_right_in[17] chanx_right_in[18] chanx_right_in[19]
+ chanx_right_in[1] chanx_right_in[20] chanx_right_in[21] chanx_right_in[22] chanx_right_in[23]
+ chanx_right_in[24] chanx_right_in[25] chanx_right_in[26] chanx_right_in[27] chanx_right_in[28]
+ chanx_right_in[29] chanx_right_in[2] chanx_right_in[3] chanx_right_in[4] chanx_right_in[5]
+ chanx_right_in[6] chanx_right_in[7] chanx_right_in[8] chanx_right_in[9] chanx_right_out[0]
+ chanx_right_out[10] chanx_right_out[11] chanx_right_out[12] chanx_right_out[13]
+ chanx_right_out[14] chanx_right_out[15] chanx_right_out[16] chanx_right_out[17]
+ chanx_right_out[18] chanx_right_out[19] chanx_right_out[1] chanx_right_out[20] chanx_right_out[21]
+ chanx_right_out[22] chanx_right_out[23] chanx_right_out[24] chanx_right_out[25]
+ chanx_right_out[26] chanx_right_out[27] chanx_right_out[28] chanx_right_out[29]
+ chanx_right_out[2] chanx_right_out[3] chanx_right_out[4] chanx_right_out[5] chanx_right_out[6]
+ chanx_right_out[7] chanx_right_out[8] chanx_right_out[9] chany_bottom_in_0[0] chany_bottom_in_0[10]
+ chany_bottom_in_0[11] chany_bottom_in_0[12] chany_bottom_in_0[13] chany_bottom_in_0[14]
+ chany_bottom_in_0[15] chany_bottom_in_0[16] chany_bottom_in_0[17] chany_bottom_in_0[18]
+ chany_bottom_in_0[19] chany_bottom_in_0[1] chany_bottom_in_0[20] chany_bottom_in_0[21]
+ chany_bottom_in_0[22] chany_bottom_in_0[23] chany_bottom_in_0[24] chany_bottom_in_0[25]
+ chany_bottom_in_0[26] chany_bottom_in_0[27] chany_bottom_in_0[28] chany_bottom_in_0[29]
+ chany_bottom_in_0[2] chany_bottom_in_0[3] chany_bottom_in_0[4] chany_bottom_in_0[5]
+ chany_bottom_in_0[6] chany_bottom_in_0[7] chany_bottom_in_0[8] chany_bottom_in_0[9]
+ chany_bottom_out_0[0] chany_bottom_out_0[10] chany_bottom_out_0[11] chany_bottom_out_0[12]
+ chany_bottom_out_0[13] chany_bottom_out_0[14] chany_bottom_out_0[15] chany_bottom_out_0[16]
+ chany_bottom_out_0[17] chany_bottom_out_0[18] chany_bottom_out_0[19] chany_bottom_out_0[1]
+ chany_bottom_out_0[20] chany_bottom_out_0[21] chany_bottom_out_0[22] chany_bottom_out_0[23]
+ chany_bottom_out_0[24] chany_bottom_out_0[25] chany_bottom_out_0[26] chany_bottom_out_0[27]
+ chany_bottom_out_0[28] chany_bottom_out_0[29] chany_bottom_out_0[2] chany_bottom_out_0[3]
+ chany_bottom_out_0[4] chany_bottom_out_0[5] chany_bottom_out_0[6] chany_bottom_out_0[7]
+ chany_bottom_out_0[8] chany_bottom_out_0[9] gfpga_pad_io_soc_dir[0] gfpga_pad_io_soc_dir[1]
+ gfpga_pad_io_soc_dir[2] gfpga_pad_io_soc_dir[3] gfpga_pad_io_soc_in[0] gfpga_pad_io_soc_in[1]
+ gfpga_pad_io_soc_in[2] gfpga_pad_io_soc_in[3] gfpga_pad_io_soc_out[0] gfpga_pad_io_soc_out[1]
+ gfpga_pad_io_soc_out[2] gfpga_pad_io_soc_out[3] isol_n prog_clk prog_reset reset
+ right_bottom_grid_top_width_0_height_0_subtile_0__pin_O_0_ right_bottom_grid_top_width_0_height_0_subtile_0__pin_O_1_
+ right_bottom_grid_top_width_0_height_0_subtile_0__pin_O_2_ right_bottom_grid_top_width_0_height_0_subtile_0__pin_O_3_
+ right_bottom_grid_top_width_0_height_0_subtile_0__pin_O_4_ right_bottom_grid_top_width_0_height_0_subtile_0__pin_O_5_
+ right_bottom_grid_top_width_0_height_0_subtile_0__pin_O_6_ right_bottom_grid_top_width_0_height_0_subtile_0__pin_O_7_
+ right_top_grid_bottom_width_0_height_0_subtile_0__pin_inpad_0_ right_top_grid_bottom_width_0_height_0_subtile_1__pin_inpad_0_
+ right_top_grid_bottom_width_0_height_0_subtile_2__pin_inpad_0_ right_top_grid_bottom_width_0_height_0_subtile_3__pin_inpad_0_
+ right_width_0_height_0_subtile_0__pin_inpad_0_ right_width_0_height_0_subtile_1__pin_inpad_0_
+ right_width_0_height_0_subtile_2__pin_inpad_0_ right_width_0_height_0_subtile_3__pin_inpad_0_
+ test_enable
XFILLER_54_236 VGND VGND VPWR VPWR sky130_fd_sc_hd__decap_4
XFILLER_54_225 VGND VGND VPWR VPWR sky130_fd_sc_hd__fill_2
XANTENNA_sb_0__8_.mux_right_track_10.mux_l1_in_1__A1 net73 VGND VGND VPWR VPWR sky130_fd_sc_hd__diode_2
XFILLER_39_222 VGND VGND VPWR VPWR sky130_fd_sc_hd__fill_2
XTAP_199 VGND VPWR sky130_fd_sc_hd__tapvpwrvgnd_1
XFILLER_52_29 VGND VGND VPWR VPWR sky130_ef_sc_hd__decap_12
Xhold340 net206 VGND VGND VPWR VPWR net545 sky130_fd_sc_hd__clkdlybuf4s25_1
XFILLER_77_15 VGND VGND VPWR VPWR sky130_ef_sc_hd__decap_12
XANTENNA_sb_0__8_.mem_right_track_50.sky130_fd_sc_hd__dfrtp_1_1__RESET_B net145 VGND
+ VGND VPWR VPWR sky130_fd_sc_hd__diode_2
XFILLER_45_247 VGND VGND VPWR VPWR sky130_fd_sc_hd__decap_4
XFILLER_45_225 VGND VGND VPWR VPWR sky130_fd_sc_hd__fill_2
XFILLER_26_96 VGND VGND VPWR VPWR sky130_fd_sc_hd__fill_2
XFILLER_26_85 VGND VGND VPWR VPWR sky130_fd_sc_hd__fill_2
XFILLER_26_41 VGND VGND VPWR VPWR sky130_fd_sc_hd__decap_4
XFILLER_42_73 VGND VGND VPWR VPWR sky130_fd_sc_hd__fill_1
XFILLER_13_155 VGND VGND VPWR VPWR sky130_fd_sc_hd__fill_2
XFILLER_13_166 VGND VGND VPWR VPWR sky130_fd_sc_hd__fill_2
XFILLER_95_169 VGND VGND VPWR VPWR sky130_fd_sc_hd__fill_2
XFILLER_95_125 VGND VGND VPWR VPWR sky130_fd_sc_hd__decap_8
XFILLER_83_80 VGND VGND VPWR VPWR sky130_fd_sc_hd__fill_2
XANTENNA_sb_0__8_.mux_bottom_track_51.mux_l2_in_0__A0 net164 VGND VGND VPWR VPWR sky130_fd_sc_hd__diode_2
XANTENNA_cby_0__8_.cby_0__1_.mux_right_ipin_3.mux_l1_in_3__A0 sb_0__8_.mux_bottom_track_31.out
+ VGND VGND VPWR VPWR sky130_fd_sc_hd__diode_2
Xfanout149 net153 VGND VGND VPWR VPWR net149 sky130_fd_sc_hd__buf_4
XFILLER_63_39 VGND VGND VPWR VPWR sky130_ef_sc_hd__decap_12
XFILLER_27_225 VGND VGND VPWR VPWR sky130_fd_sc_hd__fill_1
Xhold192 net238 VGND VGND VPWR VPWR net397 sky130_fd_sc_hd__clkdlybuf4s25_1
Xhold170 net226 VGND VGND VPWR VPWR net375 sky130_fd_sc_hd__clkdlybuf4s50_1
XFILLER_12_98 VGND VGND VPWR VPWR sky130_fd_sc_hd__decap_4
Xhold181 sb_0__8_.mem_right_track_18.ccff_tail VGND VGND VPWR VPWR net386 sky130_fd_sc_hd__clkdlybuf4s25_1
XFILLER_92_139 VGND VGND VPWR VPWR sky130_fd_sc_hd__fill_1
XFILLER_77_169 VGND VGND VPWR VPWR sky130_ef_sc_hd__decap_12
Xsb_0__8_.mux_right_track_6.mux_l1_in_0_ right_top_grid_bottom_width_0_height_0_subtile_3__pin_inpad_0_
+ right_top_grid_bottom_width_0_height_0_subtile_0__pin_inpad_0_ sb_0__8_.mem_right_track_6.mem_out\[0\]
+ VGND VGND VPWR VPWR sb_0__8_.mux_right_track_6.sky130_fd_sc_hd__mux2_1_0_X sky130_fd_sc_hd__mux2_1
XFILLER_37_51 VGND VGND VPWR VPWR sky130_fd_sc_hd__decap_4
XFILLER_18_203 VGND VGND VPWR VPWR sky130_fd_sc_hd__fill_1
Xcby_0__8_.cby_0__1_.mux_right_ipin_0.mux_l2_in_2_ net58 cby_0__8_.cby_0__1_.mux_right_ipin_0.sky130_fd_sc_hd__mux2_1_4_X
+ cby_0__8_.cby_0__1_.mem_right_ipin_0.mem_out\[1\] VGND VGND VPWR VPWR cby_0__8_.cby_0__1_.mux_right_ipin_0.sky130_fd_sc_hd__mux2_1_7_X
+ sky130_fd_sc_hd__mux2_1
XANTENNA_sb_0__8_.mem_right_track_56.sky130_fd_sc_hd__dfrtp_1_1__RESET_B net144 VGND
+ VGND VPWR VPWR sky130_fd_sc_hd__diode_2
Xsb_0__8_.mux_right_track_28.mux_l1_in_1__178 VGND VGND VPWR VPWR net178 sb_0__8_.mux_right_track_28.mux_l1_in_1__178/LO
+ sky130_fd_sc_hd__conb_1
XANTENNA__124__A sb_0__8_.mux_right_track_18.out VGND VGND VPWR VPWR sky130_fd_sc_hd__diode_2
XFILLER_91_161 VGND VGND VPWR VPWR sky130_fd_sc_hd__decap_6
XANTENNA_sb_0__8_.mux_right_track_48.mux_l1_in_0__A0 net75 VGND VGND VPWR VPWR sky130_fd_sc_hd__diode_2
XFILLER_32_250 VGND VGND VPWR VPWR sky130_fd_sc_hd__fill_2
XFILLER_74_139 VGND VGND VPWR VPWR sky130_fd_sc_hd__fill_1
XFILLER_74_27 VGND VGND VPWR VPWR sky130_fd_sc_hd__fill_1
XFILLER_59_169 VGND VGND VPWR VPWR sky130_ef_sc_hd__decap_12
XFILLER_59_125 VGND VGND VPWR VPWR sky130_ef_sc_hd__decap_12
XFILLER_90_15 VGND VGND VPWR VPWR sky130_ef_sc_hd__decap_12
XFILLER_23_20 VGND VGND VPWR VPWR sky130_fd_sc_hd__fill_2
X_131_ sb_0__8_.mux_right_track_4.out VGND VGND VPWR VPWR net98 sky130_fd_sc_hd__clkbuf_1
XFILLER_23_42 VGND VGND VPWR VPWR sky130_fd_sc_hd__decap_4
XANTENNA_sb_0__8_.mux_right_track_48.sky130_fd_sc_hd__buf_4_0__A sb_0__8_.mux_right_track_48.sky130_fd_sc_hd__mux2_1_2_X
+ VGND VGND VPWR VPWR sky130_fd_sc_hd__diode_2
XANTENNA_input55_A chany_bottom_in_0[2] VGND VGND VPWR VPWR sky130_fd_sc_hd__diode_2
XFILLER_73_161 VGND VGND VPWR VPWR sky130_fd_sc_hd__decap_6
Xsb_0__8_.mux_right_track_58.mux_l1_in_0_ net76 net72 sb_0__8_.mem_right_track_58.mem_out\[0\]
+ VGND VGND VPWR VPWR sb_0__8_.mux_right_track_58.sky130_fd_sc_hd__mux2_1_0_X sky130_fd_sc_hd__mux2_1
XFILLER_0_57 VGND VGND VPWR VPWR sky130_fd_sc_hd__fill_2
Xsb_0__8_.mem_bottom_track_33.sky130_fd_sc_hd__dfrtp_1_0_ clknet_4_14_0_prog_clk net447
+ net150 VGND VGND VPWR VPWR sb_0__8_.mem_bottom_track_33.mem_out\[0\] sky130_fd_sc_hd__dfrtp_1
XANTENNA_cby_0__8_.cby_0__1_.mux_right_ipin_3.mux_l2_in_2__A0 net55 VGND VGND VPWR
+ VPWR sky130_fd_sc_hd__diode_2
XFILLER_88_209 VGND VGND VPWR VPWR sky130_ef_sc_hd__decap_12
XFILLER_50_3 VGND VGND VPWR VPWR sky130_ef_sc_hd__decap_12
XFILLER_56_128 VGND VGND VPWR VPWR sky130_ef_sc_hd__decap_12
XFILLER_49_191 VGND VGND VPWR VPWR sky130_fd_sc_hd__fill_2
Xcby_0__8_.grid_io_left_left_0__1_.logical_tile_io_mode_io__1.logical_tile_io_mode_physical__iopad_0.io_sky130_fd_sc_hd__dfrtp_1_mem.sky130_fd_sc_hd__dfrtp_1_0_
+ clknet_4_10_0_prog_clk net292 net153 VGND VGND VPWR VPWR cby_0__8_.grid_io_left_left_0__1_.logical_tile_io_mode_io__1.ccff_tail
+ sky130_fd_sc_hd__dfrtp_1
XANTENNA_sb_0__8_.mem_right_track_42.sky130_fd_sc_hd__dfrtp_1_0__RESET_B net144 VGND
+ VGND VPWR VPWR sky130_fd_sc_hd__diode_2
XFILLER_60_29 VGND VGND VPWR VPWR sky130_ef_sc_hd__decap_12
Xcby_0__8_.cby_0__1_.mux_right_ipin_0.mux_l1_in_3_ net7 net41 cby_0__8_.cby_0__1_.mem_right_ipin_0.mem_out\[0\]
+ VGND VGND VPWR VPWR cby_0__8_.cby_0__1_.mux_right_ipin_0.sky130_fd_sc_hd__mux2_1_3_X
+ sky130_fd_sc_hd__mux2_1
XFILLER_20_253 VGND VGND VPWR VPWR sky130_fd_sc_hd__fill_2
XFILLER_87_253 VGND VGND VPWR VPWR sky130_fd_sc_hd__fill_1
XFILLER_85_15 VGND VGND VPWR VPWR sky130_ef_sc_hd__decap_12
XFILLER_69_27 VGND VGND VPWR VPWR sky130_ef_sc_hd__decap_12
XANTENNA_hold287_A sb_0__8_.mem_right_track_48.ccff_tail VGND VGND VPWR VPWR sky130_fd_sc_hd__diode_2
XFILLER_87_264 VGND VGND VPWR VPWR sky130_fd_sc_hd__fill_2
XFILLER_62_109 VGND VGND VPWR VPWR sky130_ef_sc_hd__decap_12
XFILLER_47_106 VGND VGND VPWR VPWR sky130_fd_sc_hd__decap_4
XFILLER_70_197 VGND VGND VPWR VPWR sky130_ef_sc_hd__decap_12
XFILLER_70_153 VGND VGND VPWR VPWR sky130_ef_sc_hd__decap_12
XFILLER_34_85 VGND VGND VPWR VPWR sky130_fd_sc_hd__decap_4
XFILLER_34_41 VGND VGND VPWR VPWR sky130_fd_sc_hd__fill_1
XFILLER_11_264 VGND VGND VPWR VPWR sky130_fd_sc_hd__fill_2
XTAP_507 VGND VPWR sky130_fd_sc_hd__tapvpwrvgnd_1
X_114_ sb_0__8_.mux_right_track_38.out VGND VGND VPWR VPWR net80 sky130_fd_sc_hd__clkbuf_2
XFILLER_93_223 VGND VGND VPWR VPWR sky130_fd_sc_hd__fill_1
XFILLER_78_264 VGND VGND VPWR VPWR sky130_fd_sc_hd__fill_2
XFILLER_78_253 VGND VGND VPWR VPWR sky130_fd_sc_hd__decap_8
XTAP_529 VGND VPWR sky130_fd_sc_hd__tapvpwrvgnd_1
XTAP_518 VGND VPWR sky130_fd_sc_hd__tapvpwrvgnd_1
XFILLER_59_93 VGND VGND VPWR VPWR sky130_ef_sc_hd__decap_12
XFILLER_38_128 VGND VGND VPWR VPWR sky130_fd_sc_hd__fill_1
XFILLER_75_81 VGND VGND VPWR VPWR sky130_ef_sc_hd__decap_12
XFILLER_61_153 VGND VGND VPWR VPWR sky130_ef_sc_hd__decap_12
XFILLER_46_194 VGND VGND VPWR VPWR sky130_fd_sc_hd__fill_2
XANTENNA_sb_0__8_.mux_right_track_52.mux_l1_in_0__S sb_0__8_.mem_right_track_52.mem_out\[0\]
+ VGND VGND VPWR VPWR sky130_fd_sc_hd__diode_2
XFILLER_84_245 VGND VGND VPWR VPWR sky130_fd_sc_hd__decap_6
XFILLER_69_264 VGND VGND VPWR VPWR sky130_fd_sc_hd__fill_2
XFILLER_71_39 VGND VGND VPWR VPWR sky130_ef_sc_hd__decap_12
XFILLER_52_197 VGND VGND VPWR VPWR sky130_fd_sc_hd__fill_2
XANTENNA_sb_0__8_.mem_right_track_48.sky130_fd_sc_hd__dfrtp_1_0__RESET_B net149 VGND
+ VGND VPWR VPWR sky130_fd_sc_hd__diode_2
XFILLER_4_205 VGND VGND VPWR VPWR sky130_fd_sc_hd__decap_3
XFILLER_75_223 VGND VGND VPWR VPWR sky130_fd_sc_hd__fill_1
Xhold30 net388 VGND VGND VPWR VPWR net235 sky130_fd_sc_hd__clkdlybuf4s25_1
Xhold41 net410 VGND VGND VPWR VPWR net246 sky130_fd_sc_hd__clkdlybuf4s50_1
Xhold63 net494 VGND VGND VPWR VPWR net268 sky130_fd_sc_hd__clkdlybuf4s25_1
Xhold52 net452 VGND VGND VPWR VPWR net257 sky130_fd_sc_hd__clkdlybuf4s25_1
Xhold74 net486 VGND VGND VPWR VPWR net279 sky130_fd_sc_hd__clkdlybuf4s25_1
XANTENNA_input18_A chanx_right_in[23] VGND VGND VPWR VPWR sky130_fd_sc_hd__diode_2
Xhold85 net480 VGND VGND VPWR VPWR net290 sky130_fd_sc_hd__clkdlybuf4s25_1
Xhold96 net517 VGND VGND VPWR VPWR net301 sky130_fd_sc_hd__clkdlybuf4s25_1
XFILLER_45_51 VGND VGND VPWR VPWR sky130_fd_sc_hd__decap_4
XFILLER_28_183 VGND VGND VPWR VPWR sky130_fd_sc_hd__fill_1
XFILLER_43_197 VGND VGND VPWR VPWR sky130_fd_sc_hd__decap_3
XFILLER_6_12 VGND VGND VPWR VPWR sky130_fd_sc_hd__fill_2
XTAP_348 VGND VPWR sky130_fd_sc_hd__tapvpwrvgnd_1
XTAP_337 VGND VPWR sky130_fd_sc_hd__tapvpwrvgnd_1
XTAP_326 VGND VPWR sky130_fd_sc_hd__tapvpwrvgnd_1
XANTENNA_output86_A net86 VGND VGND VPWR VPWR sky130_fd_sc_hd__diode_2
XTAP_315 VGND VPWR sky130_fd_sc_hd__tapvpwrvgnd_1
XANTENNA_5 net182 VGND VGND VPWR VPWR sky130_fd_sc_hd__diode_2
XTAP_304 VGND VPWR sky130_fd_sc_hd__tapvpwrvgnd_1
XFILLER_81_237 VGND VGND VPWR VPWR sky130_ef_sc_hd__decap_12
XFILLER_66_245 VGND VGND VPWR VPWR sky130_fd_sc_hd__fill_2
XTAP_359 VGND VPWR sky130_fd_sc_hd__tapvpwrvgnd_1
XFILLER_34_197 VGND VGND VPWR VPWR sky130_fd_sc_hd__fill_2
Xsb_0__8_.mem_right_track_34.sky130_fd_sc_hd__dfrtp_1_0_ clknet_4_6_0_prog_clk net441
+ net148 VGND VGND VPWR VPWR sb_0__8_.mem_right_track_34.mem_out\[0\] sky130_fd_sc_hd__dfrtp_1
XFILLER_82_27 VGND VGND VPWR VPWR sky130_fd_sc_hd__fill_1
XANTENNA_sb_0__8_.mux_right_track_6.mux_l1_in_0__A0 right_top_grid_bottom_width_0_height_0_subtile_3__pin_inpad_0_
+ VGND VGND VPWR VPWR sky130_fd_sc_hd__diode_2
XFILLER_40_134 VGND VGND VPWR VPWR sky130_fd_sc_hd__fill_1
XFILLER_25_186 VGND VGND VPWR VPWR sky130_fd_sc_hd__fill_2
XFILLER_15_54 VGND VGND VPWR VPWR sky130_fd_sc_hd__fill_2
XANTENNA_sb_0__8_.mem_right_track_50.sky130_fd_sc_hd__dfrtp_1_0__D net493 VGND VGND
+ VPWR VPWR sky130_fd_sc_hd__diode_2
XFILLER_56_83 VGND VGND VPWR VPWR sky130_fd_sc_hd__fill_1
Xoutput97 net97 VGND VGND VPWR VPWR chanx_right_out[26] sky130_fd_sc_hd__buf_12
XANTENNA_output124_A net124 VGND VGND VPWR VPWR sky130_fd_sc_hd__diode_2
Xoutput86 net86 VGND VGND VPWR VPWR chanx_right_out[16] sky130_fd_sc_hd__buf_12
XFILLER_0_263 VGND VGND VPWR VPWR sky130_fd_sc_hd__decap_3
XPHY_170 VGND VGND VPWR VPWR sky130_fd_sc_hd__decap_3
XFILLER_31_101 VGND VGND VPWR VPWR sky130_fd_sc_hd__fill_2
XFILLER_16_175 VGND VGND VPWR VPWR sky130_fd_sc_hd__fill_1
Xcby_0__8_.cby_0__1_.mux_right_ipin_0.mux_l3_in_0_ cby_0__8_.cby_0__1_.mux_right_ipin_0.sky130_fd_sc_hd__mux2_1_6_X
+ cby_0__8_.cby_0__1_.mux_right_ipin_0.sky130_fd_sc_hd__mux2_1_5_X cby_0__8_.cby_0__1_.mem_right_ipin_0.mem_out\[2\]
+ VGND VGND VPWR VPWR cby_0__8_.cby_0__1_.mux_right_ipin_0.sky130_fd_sc_hd__mux2_1_9_X
+ sky130_fd_sc_hd__mux2_1
XPHY_181 VGND VGND VPWR VPWR sky130_fd_sc_hd__decap_3
XFILLER_54_248 VGND VGND VPWR VPWR sky130_fd_sc_hd__decap_4
XFILLER_22_134 VGND VGND VPWR VPWR sky130_fd_sc_hd__fill_2
XFILLER_77_27 VGND VGND VPWR VPWR sky130_ef_sc_hd__decap_12
Xhold330 sb_0__8_.mem_right_track_12.mem_out\[0\] VGND VGND VPWR VPWR net535 sky130_fd_sc_hd__clkdlybuf4s25_1
Xhold341 net331 VGND VGND VPWR VPWR net546 sky130_fd_sc_hd__clkdlybuf4s50_1
XFILLER_93_15 VGND VGND VPWR VPWR sky130_ef_sc_hd__decap_12
XFILLER_89_167 VGND VGND VPWR VPWR sky130_fd_sc_hd__fill_1
XFILLER_45_204 VGND VGND VPWR VPWR sky130_fd_sc_hd__decap_4
XFILLER_26_53 VGND VGND VPWR VPWR sky130_fd_sc_hd__decap_4
XFILLER_42_85 VGND VGND VPWR VPWR sky130_fd_sc_hd__fill_2
XFILLER_42_41 VGND VGND VPWR VPWR sky130_ef_sc_hd__decap_12
XFILLER_3_57 VGND VGND VPWR VPWR sky130_fd_sc_hd__fill_2
XFILLER_80_3 VGND VGND VPWR VPWR sky130_ef_sc_hd__decap_12
XANTENNA_sb_0__8_.mux_right_track_56.mux_l1_in_0__A0 net54 VGND VGND VPWR VPWR sky130_fd_sc_hd__diode_2
XFILLER_8_160 VGND VGND VPWR VPWR sky130_fd_sc_hd__decap_4
XFILLER_12_11 VGND VGND VPWR VPWR sky130_fd_sc_hd__decap_4
XFILLER_12_88 VGND VGND VPWR VPWR sky130_fd_sc_hd__fill_2
XFILLER_88_15 VGND VGND VPWR VPWR sky130_ef_sc_hd__decap_12
XFILLER_77_115 VGND VGND VPWR VPWR sky130_ef_sc_hd__decap_12
Xhold171 sb_0__8_.mem_right_track_2.ccff_tail VGND VGND VPWR VPWR net376 sky130_fd_sc_hd__clkdlybuf4s25_1
Xhold193 cby_0__8_.cby_0__1_.ccff_tail VGND VGND VPWR VPWR net398 sky130_fd_sc_hd__clkdlybuf4s25_1
Xhold160 net224 VGND VGND VPWR VPWR net365 sky130_fd_sc_hd__clkdlybuf4s25_1
Xhold182 net232 VGND VGND VPWR VPWR net387 sky130_fd_sc_hd__clkdlybuf4s25_1
XFILLER_85_181 VGND VGND VPWR VPWR sky130_ef_sc_hd__decap_12
XFILLER_37_63 VGND VGND VPWR VPWR sky130_fd_sc_hd__fill_2
Xcby_0__8_.cby_0__1_.mux_right_ipin_0.mux_l2_in_1_ cby_0__8_.cby_0__1_.mux_right_ipin_0.sky130_fd_sc_hd__mux2_1_3_X
+ cby_0__8_.cby_0__1_.mux_right_ipin_0.sky130_fd_sc_hd__mux2_1_2_X cby_0__8_.cby_0__1_.mem_right_ipin_0.mem_out\[1\]
+ VGND VGND VPWR VPWR cby_0__8_.cby_0__1_.mux_right_ipin_0.sky130_fd_sc_hd__mux2_1_6_X
+ sky130_fd_sc_hd__mux2_1
XFILLER_53_51 VGND VGND VPWR VPWR sky130_fd_sc_hd__decap_4
XFILLER_41_240 VGND VGND VPWR VPWR sky130_fd_sc_hd__decap_4
Xclkbuf_4_6_0_prog_clk clknet_0_prog_clk VGND VGND VPWR VPWR clknet_4_6_0_prog_clk
+ sky130_fd_sc_hd__clkbuf_8
XFILLER_24_207 VGND VGND VPWR VPWR sky130_fd_sc_hd__fill_2
XANTENNA_sb_0__8_.mux_right_track_48.mux_l1_in_0__A1 right_top_grid_bottom_width_0_height_0_subtile_2__pin_inpad_0_
+ VGND VGND VPWR VPWR sky130_fd_sc_hd__diode_2
XFILLER_59_137 VGND VGND VPWR VPWR sky130_ef_sc_hd__decap_12
XFILLER_58_29 VGND VGND VPWR VPWR sky130_ef_sc_hd__decap_12
XFILLER_67_181 VGND VGND VPWR VPWR sky130_ef_sc_hd__decap_12
XANTENNA_cby_0__8_.cby_0__1_.mem_right_ipin_0.sky130_fd_sc_hd__dfrtp_1_1__RESET_B
+ net143 VGND VGND VPWR VPWR sky130_fd_sc_hd__diode_2
XFILLER_90_27 VGND VGND VPWR VPWR sky130_fd_sc_hd__fill_1
X_130_ sb_0__8_.mux_right_track_6.out VGND VGND VPWR VPWR net97 sky130_fd_sc_hd__dlymetal6s2s_1
XFILLER_23_54 VGND VGND VPWR VPWR sky130_fd_sc_hd__fill_2
XFILLER_23_251 VGND VGND VPWR VPWR sky130_fd_sc_hd__fill_2
XFILLER_23_98 VGND VGND VPWR VPWR sky130_fd_sc_hd__decap_4
XFILLER_48_73 VGND VGND VPWR VPWR sky130_fd_sc_hd__fill_1
XANTENNA_sb_0__8_.mux_bottom_track_7.mux_l1_in_0__A0 right_width_0_height_0_subtile_0__pin_inpad_0_
+ VGND VGND VPWR VPWR sky130_fd_sc_hd__diode_2
XANTENNA_input48_A chany_bottom_in_0[23] VGND VGND VPWR VPWR sky130_fd_sc_hd__diode_2
XFILLER_64_83 VGND VGND VPWR VPWR sky130_fd_sc_hd__fill_1
XFILLER_58_181 VGND VGND VPWR VPWR sky130_fd_sc_hd__decap_4
XANTENNA_sb_0__8_.mux_right_track_14.mux_l1_in_0__A0 net74 VGND VGND VPWR VPWR sky130_fd_sc_hd__diode_2
XANTENNA__135__A net24 VGND VGND VPWR VPWR sky130_fd_sc_hd__diode_2
XFILLER_14_251 VGND VGND VPWR VPWR sky130_fd_sc_hd__fill_1
XFILLER_89_80 VGND VGND VPWR VPWR sky130_ef_sc_hd__decap_12
XFILLER_43_3 VGND VGND VPWR VPWR sky130_ef_sc_hd__decap_12
XFILLER_64_195 VGND VGND VPWR VPWR sky130_fd_sc_hd__fill_1
XFILLER_69_39 VGND VGND VPWR VPWR sky130_ef_sc_hd__decap_12
Xcby_0__8_.cby_0__1_.mux_right_ipin_0.mux_l1_in_2_ sb_0__8_.mux_bottom_track_13.out
+ net48 cby_0__8_.cby_0__1_.mem_right_ipin_0.mem_out\[0\] VGND VGND VPWR VPWR cby_0__8_.cby_0__1_.mux_right_ipin_0.sky130_fd_sc_hd__mux2_1_2_X
+ sky130_fd_sc_hd__mux2_1
XFILLER_85_27 VGND VGND VPWR VPWR sky130_ef_sc_hd__decap_12
XFILLER_70_121 VGND VGND VPWR VPWR sky130_ef_sc_hd__decap_12
XANTENNA_sb_0__8_.mux_bottom_track_47.mux_l1_in_0__A0 right_width_0_height_0_subtile_1__pin_inpad_0_
+ VGND VGND VPWR VPWR sky130_fd_sc_hd__diode_2
XFILLER_55_173 VGND VGND VPWR VPWR sky130_fd_sc_hd__decap_6
XFILLER_70_165 VGND VGND VPWR VPWR sky130_ef_sc_hd__decap_12
XFILLER_50_41 VGND VGND VPWR VPWR sky130_ef_sc_hd__decap_12
XFILLER_34_97 VGND VGND VPWR VPWR sky130_fd_sc_hd__decap_4
XFILLER_7_225 VGND VGND VPWR VPWR sky130_fd_sc_hd__fill_2
XFILLER_7_247 VGND VGND VPWR VPWR sky130_fd_sc_hd__fill_1
X_113_ sb_0__8_.mux_right_track_40.out VGND VGND VPWR VPWR net108 sky130_fd_sc_hd__clkbuf_2
XTAP_519 VGND VPWR sky130_fd_sc_hd__tapvpwrvgnd_1
XTAP_508 VGND VPWR sky130_fd_sc_hd__tapvpwrvgnd_1
XFILLER_50_85 VGND VGND VPWR VPWR sky130_ef_sc_hd__decap_12
XFILLER_78_221 VGND VGND VPWR VPWR sky130_ef_sc_hd__decap_12
XFILLER_38_107 VGND VGND VPWR VPWR sky130_fd_sc_hd__decap_8
XFILLER_91_81 VGND VGND VPWR VPWR sky130_fd_sc_hd__fill_1
XFILLER_75_93 VGND VGND VPWR VPWR sky130_ef_sc_hd__decap_12
XFILLER_61_165 VGND VGND VPWR VPWR sky130_fd_sc_hd__decap_3
XFILLER_61_110 VGND VGND VPWR VPWR sky130_fd_sc_hd__fill_2
XFILLER_46_184 VGND VGND VPWR VPWR sky130_fd_sc_hd__decap_4
XANTENNA_sb_0__8_.mem_right_track_40.sky130_fd_sc_hd__dfrtp_1_1__RESET_B net144 VGND
+ VGND VPWR VPWR sky130_fd_sc_hd__diode_2
XFILLER_52_154 VGND VGND VPWR VPWR sky130_fd_sc_hd__fill_2
Xsb_0__8_.mux_right_track_16.mux_l2_in_0_ sb_0__8_.mux_right_track_16.sky130_fd_sc_hd__mux2_1_1_X
+ sb_0__8_.mux_right_track_16.sky130_fd_sc_hd__mux2_1_0_X sb_0__8_.mem_right_track_16.ccff_tail
+ VGND VGND VPWR VPWR sb_0__8_.mux_right_track_16.sky130_fd_sc_hd__mux2_1_2_X sky130_fd_sc_hd__mux2_1
XANTENNA_cby_0__8_.grid_io_left_left_0__1_.logical_tile_io_mode_io__2.logical_tile_io_mode_physical__iopad_0.io_0_.ISOL_EN_GATE_B_N
+ net67 VGND VGND VPWR VPWR sky130_fd_sc_hd__diode_2
XANTENNA_cby_0__8_.cby_0__1_.mux_right_ipin_0.mux_l1_in_1__A0 sb_0__8_.mux_bottom_track_7.out
+ VGND VGND VPWR VPWR sky130_fd_sc_hd__diode_2
XFILLER_75_257 VGND VGND VPWR VPWR sky130_fd_sc_hd__decap_3
Xhold53 net432 VGND VGND VPWR VPWR net258 sky130_fd_sc_hd__clkdlybuf4s25_1
Xhold31 net390 VGND VGND VPWR VPWR net236 sky130_fd_sc_hd__clkdlybuf4s25_1
Xhold20 net366 VGND VGND VPWR VPWR net225 sky130_fd_sc_hd__clkdlybuf4s25_1
Xhold42 net400 VGND VGND VPWR VPWR net247 sky130_fd_sc_hd__clkdlybuf4s25_1
Xhold97 net514 VGND VGND VPWR VPWR net302 sky130_fd_sc_hd__clkdlybuf4s25_1
Xhold75 net466 VGND VGND VPWR VPWR net280 sky130_fd_sc_hd__clkdlybuf4s25_1
Xhold64 net438 VGND VGND VPWR VPWR net269 sky130_fd_sc_hd__clkdlybuf4s25_1
Xhold86 net500 VGND VGND VPWR VPWR net291 sky130_fd_sc_hd__clkdlybuf4s25_1
XFILLER_43_110 VGND VGND VPWR VPWR sky130_fd_sc_hd__fill_2
Xcby_0__8_.cby_0__1_.mem_right_ipin_0.sky130_fd_sc_hd__dfrtp_1_3_ clknet_4_2_0_prog_clk
+ net487 net146 VGND VGND VPWR VPWR cby_0__8_.cby_0__1_.mem_right_ipin_0.ccff_tail
+ sky130_fd_sc_hd__dfrtp_1
XFILLER_61_51 VGND VGND VPWR VPWR sky130_fd_sc_hd__decap_4
XFILLER_6_46 VGND VGND VPWR VPWR sky130_fd_sc_hd__decap_4
XANTENNA_6 net182 VGND VGND VPWR VPWR sky130_fd_sc_hd__diode_2
XTAP_349 VGND VPWR sky130_fd_sc_hd__tapvpwrvgnd_1
XTAP_338 VGND VPWR sky130_fd_sc_hd__tapvpwrvgnd_1
XTAP_327 VGND VPWR sky130_fd_sc_hd__tapvpwrvgnd_1
XANTENNA_sb_0__8_.mem_bottom_track_5.sky130_fd_sc_hd__dfrtp_1_0__D net449 VGND VGND
+ VPWR VPWR sky130_fd_sc_hd__diode_2
XTAP_316 VGND VPWR sky130_fd_sc_hd__tapvpwrvgnd_1
XTAP_305 VGND VPWR sky130_fd_sc_hd__tapvpwrvgnd_1
XFILLER_81_249 VGND VGND VPWR VPWR sky130_ef_sc_hd__decap_12
XFILLER_81_205 VGND VGND VPWR VPWR sky130_ef_sc_hd__decap_12
XFILLER_34_110 VGND VGND VPWR VPWR sky130_fd_sc_hd__decap_4
XFILLER_66_29 VGND VGND VPWR VPWR sky130_ef_sc_hd__decap_12
XFILLER_25_110 VGND VGND VPWR VPWR sky130_fd_sc_hd__fill_2
XANTENNA_sb_0__8_.mux_right_track_6.mux_l1_in_0__A1 right_top_grid_bottom_width_0_height_0_subtile_0__pin_inpad_0_
+ VGND VGND VPWR VPWR sky130_fd_sc_hd__diode_2
XFILLER_31_54 VGND VGND VPWR VPWR sky130_fd_sc_hd__fill_2
Xoutput98 net98 VGND VGND VPWR VPWR chanx_right_out[27] sky130_fd_sc_hd__buf_12
XFILLER_0_253 VGND VGND VPWR VPWR sky130_fd_sc_hd__fill_2
Xoutput87 net87 VGND VGND VPWR VPWR chanx_right_out[17] sky130_fd_sc_hd__buf_12
XFILLER_63_238 VGND VGND VPWR VPWR sky130_fd_sc_hd__decap_6
XFILLER_63_205 VGND VGND VPWR VPWR sky130_fd_sc_hd__decap_6
XANTENNA_input30_A chanx_right_in[7] VGND VGND VPWR VPWR sky130_fd_sc_hd__diode_2
XFILLER_16_121 VGND VGND VPWR VPWR sky130_fd_sc_hd__decap_4
XPHY_182 VGND VGND VPWR VPWR sky130_fd_sc_hd__decap_3
XPHY_171 VGND VGND VPWR VPWR sky130_fd_sc_hd__decap_3
XPHY_160 VGND VGND VPWR VPWR sky130_fd_sc_hd__decap_3
XFILLER_72_83 VGND VGND VPWR VPWR sky130_fd_sc_hd__fill_1
XFILLER_31_179 VGND VGND VPWR VPWR sky130_fd_sc_hd__decap_4
XANTENNA__143__A net16 VGND VGND VPWR VPWR sky130_fd_sc_hd__diode_2
Xsb_0__8_.mux_right_track_16.mux_l1_in_1_ net171 net62 sb_0__8_.mem_right_track_16.mem_out\[0\]
+ VGND VGND VPWR VPWR sb_0__8_.mux_right_track_16.sky130_fd_sc_hd__mux2_1_1_X sky130_fd_sc_hd__mux2_1
XANTENNA_fanout148_A net149 VGND VGND VPWR VPWR sky130_fd_sc_hd__diode_2
XFILLER_89_113 VGND VGND VPWR VPWR sky130_ef_sc_hd__decap_12
XFILLER_77_39 VGND VGND VPWR VPWR sky130_ef_sc_hd__decap_12
Xhold320 sb_0__8_.mem_right_track_8.mem_out\[0\] VGND VGND VPWR VPWR net525 sky130_fd_sc_hd__clkdlybuf4s25_1
Xhold342 net2 VGND VGND VPWR VPWR net547 sky130_fd_sc_hd__clkdlybuf4s25_1
Xhold331 sb_0__8_.mem_right_track_58.mem_out\[0\] VGND VGND VPWR VPWR net536 sky130_fd_sc_hd__clkdlybuf4s50_1
XFILLER_93_27 VGND VGND VPWR VPWR sky130_ef_sc_hd__decap_12
XFILLER_45_216 VGND VGND VPWR VPWR sky130_fd_sc_hd__fill_2
XFILLER_42_53 VGND VGND VPWR VPWR sky130_ef_sc_hd__decap_12
XFILLER_13_113 VGND VGND VPWR VPWR sky130_fd_sc_hd__fill_2
XFILLER_13_135 VGND VGND VPWR VPWR sky130_fd_sc_hd__decap_4
XFILLER_13_179 VGND VGND VPWR VPWR sky130_fd_sc_hd__fill_2
XFILLER_95_149 VGND VGND VPWR VPWR sky130_fd_sc_hd__fill_1
XFILLER_95_138 VGND VGND VPWR VPWR sky130_fd_sc_hd__fill_2
XFILLER_3_36 VGND VGND VPWR VPWR sky130_fd_sc_hd__decap_4
XFILLER_36_249 VGND VGND VPWR VPWR sky130_fd_sc_hd__decap_3
XANTENNA__138__A sb_0__8_.mux_bottom_track_51.out VGND VGND VPWR VPWR sky130_fd_sc_hd__diode_2
XANTENNA_sb_0__8_.mux_right_track_56.mux_l1_in_0__A1 net71 VGND VGND VPWR VPWR sky130_fd_sc_hd__diode_2
XFILLER_73_3 VGND VGND VPWR VPWR sky130_ef_sc_hd__decap_12
Xsb_0__8_.mem_bottom_track_51.sky130_fd_sc_hd__dfrtp_1_1_ clknet_4_7_0_prog_clk net375
+ net148 VGND VGND VPWR VPWR net77 sky130_fd_sc_hd__dfrtp_2