* NGSPICE file created from top_right_tile.ext - technology: sky130A

* Black-box entry subcircuit for sky130_fd_sc_hd__fill_1 abstract view
.subckt sky130_fd_sc_hd__fill_1 VGND VNB VPB VPWR
.ends

* Black-box entry subcircuit for sky130_fd_sc_hd__tapvpwrvgnd_1 abstract view
.subckt sky130_fd_sc_hd__tapvpwrvgnd_1 VGND VPWR
.ends

* Black-box entry subcircuit for sky130_fd_sc_hd__dfrtp_1 abstract view
.subckt sky130_fd_sc_hd__dfrtp_1 CLK D RESET_B VGND VNB VPB VPWR Q
.ends

* Black-box entry subcircuit for sky130_fd_sc_hd__fill_2 abstract view
.subckt sky130_fd_sc_hd__fill_2 VGND VNB VPB VPWR
.ends

* Black-box entry subcircuit for sky130_fd_sc_hd__decap_3 abstract view
.subckt sky130_fd_sc_hd__decap_3 VGND VNB VPB VPWR
.ends

* Black-box entry subcircuit for sky130_ef_sc_hd__decap_12 abstract view
.subckt sky130_ef_sc_hd__decap_12 VGND VNB VPB VPWR
.ends

* Black-box entry subcircuit for sky130_fd_sc_hd__decap_4 abstract view
.subckt sky130_fd_sc_hd__decap_4 VGND VNB VPB VPWR
.ends

* Black-box entry subcircuit for sky130_fd_sc_hd__diode_2 abstract view
.subckt sky130_fd_sc_hd__diode_2 DIODE VGND VNB VPB VPWR
.ends

* Black-box entry subcircuit for sky130_fd_sc_hd__conb_1 abstract view
.subckt sky130_fd_sc_hd__conb_1 VGND VNB VPB VPWR HI LO
.ends

* Black-box entry subcircuit for sky130_fd_sc_hd__mux2_1 abstract view
.subckt sky130_fd_sc_hd__mux2_1 A0 A1 S VGND VNB VPB VPWR X
.ends

* Black-box entry subcircuit for sky130_fd_sc_hd__clkdlybuf4s25_1 abstract view
.subckt sky130_fd_sc_hd__clkdlybuf4s25_1 A VGND VNB VPB VPWR X
.ends

* Black-box entry subcircuit for sky130_fd_sc_hd__clkbuf_16 abstract view
.subckt sky130_fd_sc_hd__clkbuf_16 A VGND VNB VPB VPWR X
.ends

* Black-box entry subcircuit for sky130_fd_sc_hd__decap_6 abstract view
.subckt sky130_fd_sc_hd__decap_6 VGND VNB VPB VPWR
.ends

* Black-box entry subcircuit for sky130_fd_sc_hd__clkbuf_2 abstract view
.subckt sky130_fd_sc_hd__clkbuf_2 A VGND VNB VPB VPWR X
.ends

* Black-box entry subcircuit for sky130_fd_sc_hd__decap_8 abstract view
.subckt sky130_fd_sc_hd__decap_8 VGND VNB VPB VPWR
.ends

* Black-box entry subcircuit for sky130_fd_sc_hd__clkbuf_1 abstract view
.subckt sky130_fd_sc_hd__clkbuf_1 A VGND VNB VPB VPWR X
.ends

* Black-box entry subcircuit for sky130_fd_sc_hd__buf_4 abstract view
.subckt sky130_fd_sc_hd__buf_4 A VGND VNB VPB VPWR X
.ends

* Black-box entry subcircuit for sky130_fd_sc_hd__inv_1 abstract view
.subckt sky130_fd_sc_hd__inv_1 A VGND VNB VPB VPWR Y
.ends

* Black-box entry subcircuit for sky130_fd_sc_hd__clkdlybuf4s50_1 abstract view
.subckt sky130_fd_sc_hd__clkdlybuf4s50_1 A VGND VNB VPB VPWR X
.ends

* Black-box entry subcircuit for sky130_fd_sc_hd__or2_1 abstract view
.subckt sky130_fd_sc_hd__or2_1 A B VGND VNB VPB VPWR X
.ends

* Black-box entry subcircuit for sky130_fd_sc_hd__mux2_4 abstract view
.subckt sky130_fd_sc_hd__mux2_4 A0 A1 S VGND VNB VPB VPWR X
.ends

* Black-box entry subcircuit for sky130_fd_sc_hd__buf_12 abstract view
.subckt sky130_fd_sc_hd__buf_12 A VGND VNB VPB VPWR X
.ends

* Black-box entry subcircuit for sky130_fd_sc_hd__sdfrtp_1 abstract view
.subckt sky130_fd_sc_hd__sdfrtp_1 CLK D RESET_B SCD SCE VGND VNB VPB VPWR Q
.ends

* Black-box entry subcircuit for sky130_fd_sc_hd__mux2_8 abstract view
.subckt sky130_fd_sc_hd__mux2_8 A0 A1 S VGND VNB VPB VPWR X
.ends

* Black-box entry subcircuit for sky130_fd_sc_hd__clkbuf_4 abstract view
.subckt sky130_fd_sc_hd__clkbuf_4 A VGND VNB VPB VPWR X
.ends

* Black-box entry subcircuit for sky130_fd_sc_hd__or2b_2 abstract view
.subckt sky130_fd_sc_hd__or2b_2 A B_N VGND VNB VPB VPWR X
.ends

* Black-box entry subcircuit for sky130_fd_sc_hd__dfrtp_2 abstract view
.subckt sky130_fd_sc_hd__dfrtp_2 CLK D RESET_B VGND VNB VPB VPWR Q
.ends

* Black-box entry subcircuit for sky130_fd_sc_hd__sdfrtp_2 abstract view
.subckt sky130_fd_sc_hd__sdfrtp_2 CLK D RESET_B SCD SCE VGND VNB VPB VPWR Q
.ends

* Black-box entry subcircuit for sky130_fd_sc_hd__dfrtp_4 abstract view
.subckt sky130_fd_sc_hd__dfrtp_4 CLK D RESET_B VGND VNB VPB VPWR Q
.ends

* Black-box entry subcircuit for sky130_fd_sc_hd__buf_8 abstract view
.subckt sky130_fd_sc_hd__buf_8 A VGND VNB VPB VPWR X
.ends

* Black-box entry subcircuit for sky130_fd_sc_hd__ebufn_8 abstract view
.subckt sky130_fd_sc_hd__ebufn_8 A TE_B VGND VNB VPB VPWR Z
.ends

* Black-box entry subcircuit for sky130_fd_sc_hd__dlymetal6s2s_1 abstract view
.subckt sky130_fd_sc_hd__dlymetal6s2s_1 A VGND VNB VPB VPWR X
.ends

* Black-box entry subcircuit for sky130_fd_sc_hd__buf_2 abstract view
.subckt sky130_fd_sc_hd__buf_2 A VGND VNB VPB VPWR X
.ends

* Black-box entry subcircuit for sky130_fd_sc_hd__buf_6 abstract view
.subckt sky130_fd_sc_hd__buf_6 A VGND VNB VPB VPWR X
.ends

.subckt top_right_tile VGND VPWR bottom_width_0_height_0_subtile_0__pin_cout_0_ bottom_width_0_height_0_subtile_0__pin_inpad_0_
+ bottom_width_0_height_0_subtile_0__pin_reg_out_0_ bottom_width_0_height_0_subtile_1__pin_inpad_0_
+ bottom_width_0_height_0_subtile_2__pin_inpad_0_ bottom_width_0_height_0_subtile_3__pin_inpad_0_
+ ccff_head_0_0 ccff_head_1 ccff_tail ccff_tail_0 chanx_left_in[0] chanx_left_in[10]
+ chanx_left_in[11] chanx_left_in[12] chanx_left_in[13] chanx_left_in[14] chanx_left_in[15]
+ chanx_left_in[16] chanx_left_in[17] chanx_left_in[18] chanx_left_in[19] chanx_left_in[1]
+ chanx_left_in[20] chanx_left_in[21] chanx_left_in[22] chanx_left_in[23] chanx_left_in[24]
+ chanx_left_in[25] chanx_left_in[26] chanx_left_in[27] chanx_left_in[28] chanx_left_in[29]
+ chanx_left_in[2] chanx_left_in[3] chanx_left_in[4] chanx_left_in[5] chanx_left_in[6]
+ chanx_left_in[7] chanx_left_in[8] chanx_left_in[9] chanx_left_out[0] chanx_left_out[10]
+ chanx_left_out[11] chanx_left_out[12] chanx_left_out[13] chanx_left_out[14] chanx_left_out[15]
+ chanx_left_out[16] chanx_left_out[17] chanx_left_out[18] chanx_left_out[19] chanx_left_out[1]
+ chanx_left_out[20] chanx_left_out[21] chanx_left_out[22] chanx_left_out[23] chanx_left_out[24]
+ chanx_left_out[25] chanx_left_out[26] chanx_left_out[27] chanx_left_out[28] chanx_left_out[29]
+ chanx_left_out[2] chanx_left_out[3] chanx_left_out[4] chanx_left_out[5] chanx_left_out[6]
+ chanx_left_out[7] chanx_left_out[8] chanx_left_out[9] chany_bottom_in[0] chany_bottom_in[10]
+ chany_bottom_in[11] chany_bottom_in[12] chany_bottom_in[13] chany_bottom_in[14]
+ chany_bottom_in[15] chany_bottom_in[16] chany_bottom_in[17] chany_bottom_in[18]
+ chany_bottom_in[19] chany_bottom_in[1] chany_bottom_in[20] chany_bottom_in[21] chany_bottom_in[22]
+ chany_bottom_in[23] chany_bottom_in[24] chany_bottom_in[25] chany_bottom_in[26]
+ chany_bottom_in[27] chany_bottom_in[28] chany_bottom_in[29] chany_bottom_in[2] chany_bottom_in[3]
+ chany_bottom_in[4] chany_bottom_in[5] chany_bottom_in[6] chany_bottom_in[7] chany_bottom_in[8]
+ chany_bottom_in[9] chany_bottom_out[0] chany_bottom_out[10] chany_bottom_out[11]
+ chany_bottom_out[12] chany_bottom_out[13] chany_bottom_out[14] chany_bottom_out[15]
+ chany_bottom_out[16] chany_bottom_out[17] chany_bottom_out[18] chany_bottom_out[19]
+ chany_bottom_out[1] chany_bottom_out[20] chany_bottom_out[21] chany_bottom_out[22]
+ chany_bottom_out[23] chany_bottom_out[24] chany_bottom_out[25] chany_bottom_out[26]
+ chany_bottom_out[27] chany_bottom_out[28] chany_bottom_out[29] chany_bottom_out[2]
+ chany_bottom_out[3] chany_bottom_out[4] chany_bottom_out[5] chany_bottom_out[6]
+ chany_bottom_out[7] chany_bottom_out[8] chany_bottom_out[9] clk0 gfpga_pad_io_soc_dir[0]
+ gfpga_pad_io_soc_dir[1] gfpga_pad_io_soc_dir[2] gfpga_pad_io_soc_dir[3] gfpga_pad_io_soc_dir_0[0]
+ gfpga_pad_io_soc_dir_0[1] gfpga_pad_io_soc_dir_0[2] gfpga_pad_io_soc_dir_0[3] gfpga_pad_io_soc_in[0]
+ gfpga_pad_io_soc_in[1] gfpga_pad_io_soc_in[2] gfpga_pad_io_soc_in[3] gfpga_pad_io_soc_in_0[0]
+ gfpga_pad_io_soc_in_0[1] gfpga_pad_io_soc_in_0[2] gfpga_pad_io_soc_in_0[3] gfpga_pad_io_soc_out[0]
+ gfpga_pad_io_soc_out[1] gfpga_pad_io_soc_out[2] gfpga_pad_io_soc_out[3] gfpga_pad_io_soc_out_0[0]
+ gfpga_pad_io_soc_out_0[1] gfpga_pad_io_soc_out_0[2] gfpga_pad_io_soc_out_0[3] isol_n
+ left_width_0_height_0_subtile_0__pin_inpad_0_ left_width_0_height_0_subtile_1__pin_inpad_0_
+ left_width_0_height_0_subtile_2__pin_inpad_0_ left_width_0_height_0_subtile_3__pin_inpad_0_
+ prog_clk prog_reset reset right_width_0_height_0_subtile_0__pin_O_10_ right_width_0_height_0_subtile_0__pin_O_11_
+ right_width_0_height_0_subtile_0__pin_O_12_ right_width_0_height_0_subtile_0__pin_O_13_
+ right_width_0_height_0_subtile_0__pin_O_14_ right_width_0_height_0_subtile_0__pin_O_15_
+ right_width_0_height_0_subtile_0__pin_O_8_ right_width_0_height_0_subtile_0__pin_O_9_
+ sc_in sc_out test_enable top_width_0_height_0_subtile_0__pin_O_0_ top_width_0_height_0_subtile_0__pin_O_1_
+ top_width_0_height_0_subtile_0__pin_O_2_ top_width_0_height_0_subtile_0__pin_O_3_
+ top_width_0_height_0_subtile_0__pin_O_4_ top_width_0_height_0_subtile_0__pin_O_5_
+ top_width_0_height_0_subtile_0__pin_O_6_ top_width_0_height_0_subtile_0__pin_O_7_
+ top_width_0_height_0_subtile_0__pin_cin_0_ top_width_0_height_0_subtile_0__pin_reg_in_0_
XFILLER_79_391 VGND VGND VPWR VPWR sky130_fd_sc_hd__fill_1
XTAP_199 VGND VPWR sky130_fd_sc_hd__tapvpwrvgnd_1
Xgrid_clb_8__8_.logical_tile_clb_mode_clb__0.logical_tile_clb_mode_default__fle_6.logical_tile_clb_mode_default__fle_mode_physical__fabric_0.mem_ff_1_D_0.sky130_fd_sc_hd__dfrtp_1_0_
+ clknet_leaf_42_prog_clk net699 net72 VGND VGND VPWR VPWR grid_clb_8__8_.logical_tile_clb_mode_clb__0.logical_tile_clb_mode_default__fle_6.logical_tile_clb_mode_default__fle_mode_physical__fabric_0.mem_ff_1_D_0.mem_out\[0\]
+ sky130_fd_sc_hd__dfrtp_1
XFILLER_39_211 VGND VGND VPWR VPWR sky130_fd_sc_hd__fill_2
XFILLER_39_222 VGND VGND VPWR VPWR sky130_fd_sc_hd__fill_2
XFILLER_94_361 VGND VGND VPWR VPWR sky130_fd_sc_hd__decap_3
XFILLER_82_501 VGND VGND VPWR VPWR sky130_ef_sc_hd__decap_12
XFILLER_54_203 VGND VGND VPWR VPWR sky130_fd_sc_hd__fill_2
XFILLER_39_266 VGND VGND VPWR VPWR sky130_fd_sc_hd__decap_4
XANTENNA_grid_clb_8__8_.logical_tile_clb_mode_clb__0.logical_tile_clb_mode_default__fle_4.logical_tile_clb_mode_default__fle_mode_physical__fabric_0.logical_tile_clb_mode_default__fle_mode_physical__fabric_mode_default__frac_logic_0.logical_tile_clb_mode_default__fle_mode_physical__fabric_mode_default__frac_logic_mode_default__frac_lut4_0.frac_lut4_sky130_fd_sc_hd__dfrtp_1_mem.sky130_fd_sc_hd__dfrtp_1_6__RESET_B
+ net72 VGND VGND VPWR VPWR sky130_fd_sc_hd__diode_2
XFILLER_27_439 VGND VGND VPWR VPWR sky130_fd_sc_hd__decap_4
Xsb_8__8_.mux_left_track_35.mux_l1_in_1__290 VGND VGND VPWR VPWR net290 sb_8__8_.mux_left_track_35.mux_l1_in_1__290/LO
+ sky130_fd_sc_hd__conb_1
XFILLER_35_472 VGND VGND VPWR VPWR sky130_fd_sc_hd__decap_4
XANTENNA_cby_8__8_.cby_8__8_.mux_right_ipin_6.mux_l1_in_3__A1 net37 VGND VGND VPWR
+ VPWR sky130_fd_sc_hd__diode_2
XFILLER_22_111 VGND VGND VPWR VPWR sky130_fd_sc_hd__fill_2
XFILLER_22_133 VGND VGND VPWR VPWR sky130_fd_sc_hd__fill_2
XFILLER_52_29 VGND VGND VPWR VPWR sky130_fd_sc_hd__decap_3
XFILLER_10_306 VGND VGND VPWR VPWR sky130_fd_sc_hd__fill_2
XFILLER_22_166 VGND VGND VPWR VPWR sky130_fd_sc_hd__decap_4
XFILLER_50_475 VGND VGND VPWR VPWR sky130_fd_sc_hd__fill_1
XFILLER_10_339 VGND VGND VPWR VPWR sky130_fd_sc_hd__decap_4
Xcbx_8__8_.cbx_1__8_.mux_top_ipin_4.mux_l2_in_2_ net26 cbx_8__8_.cbx_1__8_.mux_top_ipin_4.sky130_fd_sc_hd__mux2_1_4_X
+ cbx_8__8_.cbx_1__8_.mem_top_ipin_4.mem_out\[1\] VGND VGND VPWR VPWR cbx_8__8_.cbx_1__8_.mux_top_ipin_4.sky130_fd_sc_hd__mux2_1_7_X
+ sky130_fd_sc_hd__mux2_1
Xgrid_clb_8__8_.logical_tile_clb_mode_clb__0.logical_tile_clb_mode_default__fle_7.logical_tile_clb_mode_default__fle_mode_physical__fabric_0.mux_fabric_out_0.mux_l1_in_0_
+ grid_clb_8__8_.logical_tile_clb_mode_clb__0.logical_tile_clb_mode_default__fle_7.logical_tile_clb_mode_default__fle_mode_physical__fabric_0.logical_tile_clb_mode_default__fle_mode_physical__fabric_mode_default__frac_logic_0.mux_frac_logic_out_0.out
+ grid_clb_8__8_.logical_tile_clb_mode_clb__0.logical_tile_clb_mode_default__fle_7.logical_tile_clb_mode_default__fle_mode_physical__fabric_0.direct_interc_11_.in
+ grid_clb_8__8_.logical_tile_clb_mode_clb__0.logical_tile_clb_mode_default__fle_7.logical_tile_clb_mode_default__fle_mode_physical__fabric_0.mem_fabric_out_0.mem_out\[0\]
+ VGND VGND VPWR VPWR grid_clb_8__8_.logical_tile_clb_mode_clb__0.logical_tile_clb_mode_default__fle_7.logical_tile_clb_mode_default__fle_mode_physical__fabric_0.mux_fabric_out_0.sky130_fd_sc_hd__mux2_1_0_X
+ sky130_fd_sc_hd__mux2_1
Xgrid_clb_8__8_.logical_tile_clb_mode_clb__0.logical_tile_clb_mode_default__fle_7.logical_tile_clb_mode_default__fle_mode_physical__fabric_0.logical_tile_clb_mode_default__fle_mode_physical__fabric_mode_default__frac_logic_0.logical_tile_clb_mode_default__fle_mode_physical__fabric_mode_default__frac_logic_mode_default__frac_lut4_0.frac_lut4_sky130_fd_sc_hd__dfrtp_1_mem.sky130_fd_sc_hd__dfrtp_1_10_
+ clknet_leaf_44_prog_clk net516 net72 VGND VGND VPWR VPWR grid_clb_8__8_.logical_tile_clb_mode_clb__0.logical_tile_clb_mode_default__fle_7.logical_tile_clb_mode_default__fle_mode_physical__fabric_0.logical_tile_clb_mode_default__fle_mode_physical__fabric_mode_default__frac_logic_0.logical_tile_clb_mode_default__fle_mode_physical__fabric_mode_default__frac_logic_mode_default__frac_lut4_0.frac_lut4_0_.frac_lut4_mux_0_.in\[10\]
+ sky130_fd_sc_hd__dfrtp_1
Xhold351 grid_clb_8__8_.logical_tile_clb_mode_clb__0.logical_tile_clb_mode_default__fle_1.logical_tile_clb_mode_default__fle_mode_physical__fabric_0.logical_tile_clb_mode_default__fle_mode_physical__fabric_mode_default__frac_logic_0.mem_frac_logic_out_0.mem_out\[0\]
+ VGND VGND VPWR VPWR net665 sky130_fd_sc_hd__clkdlybuf4s25_1
Xhold362 grid_clb_8__8_.logical_tile_clb_mode_clb__0.logical_tile_clb_mode_default__fle_1.logical_tile_clb_mode_default__fle_mode_physical__fabric_0.mem_ff_0_D_0.mem_out\[0\]
+ VGND VGND VPWR VPWR net676 sky130_fd_sc_hd__clkdlybuf4s25_1
Xhold340 grid_clb_8__8_.logical_tile_clb_mode_clb__0.logical_tile_clb_mode_default__fle_2.logical_tile_clb_mode_default__fle_mode_physical__fabric_0.mem_ff_1_D_0.mem_out\[0\]
+ VGND VGND VPWR VPWR net654 sky130_fd_sc_hd__clkdlybuf4s25_1
XFILLER_89_155 VGND VGND VPWR VPWR sky130_fd_sc_hd__fill_1
Xhold395 cbx_8__8_.cbx_1__8_.mem_top_ipin_8.ccff_tail VGND VGND VPWR VPWR net709 sky130_fd_sc_hd__clkdlybuf4s25_1
XANTENNA_grid_clb_8__8_.logical_tile_clb_mode_clb__0.logical_tile_clb_mode_default__fle_4.logical_tile_clb_mode_default__fle_mode_physical__fabric_0.logical_tile_clb_mode_default__fle_mode_physical__fabric_mode_default__frac_logic_0.mem_frac_logic_out_0.sky130_fd_sc_hd__dfrtp_1_0__RESET_B
+ net169 VGND VGND VPWR VPWR sky130_fd_sc_hd__diode_2
Xhold384 grid_clb_8__8_.logical_tile_clb_mode_clb__0.logical_tile_clb_mode_default__fle_5.logical_tile_clb_mode_default__fle_mode_physical__fabric_0.logical_tile_clb_mode_default__fle_mode_physical__fabric_mode_default__frac_logic_0.ccff_tail
+ VGND VGND VPWR VPWR net698 sky130_fd_sc_hd__clkdlybuf4s25_1
Xclkbuf_leaf_53_prog_clk clknet_3_1__leaf_prog_clk VGND VGND VPWR VPWR clknet_leaf_53_prog_clk
+ sky130_fd_sc_hd__clkbuf_16
Xhold373 sb_8__8_.mem_left_track_3.mem_out\[0\] VGND VGND VPWR VPWR net687 sky130_fd_sc_hd__clkdlybuf4s25_1
XFILLER_89_188 VGND VGND VPWR VPWR sky130_fd_sc_hd__fill_1
XFILLER_58_520 VGND VGND VPWR VPWR sky130_fd_sc_hd__decap_6
XFILLER_92_309 VGND VGND VPWR VPWR sky130_fd_sc_hd__fill_2
XFILLER_85_361 VGND VGND VPWR VPWR sky130_fd_sc_hd__decap_3
XFILLER_45_225 VGND VGND VPWR VPWR sky130_ef_sc_hd__decap_12
XFILLER_93_69 VGND VGND VPWR VPWR sky130_fd_sc_hd__fill_1
XFILLER_26_461 VGND VGND VPWR VPWR sky130_fd_sc_hd__decap_4
XFILLER_26_96 VGND VGND VPWR VPWR sky130_fd_sc_hd__fill_2
XFILLER_41_442 VGND VGND VPWR VPWR sky130_fd_sc_hd__fill_1
Xcbx_8__8_.cbx_1__8_.mux_top_ipin_9.mux_l4_in_0_ cbx_8__8_.cbx_1__8_.mux_top_ipin_9.sky130_fd_sc_hd__mux2_1_8_X
+ net357 cbx_8__8_.cbx_1__8_.mem_top_ipin_10.ccff_head VGND VGND VPWR VPWR cbx_8__8_.cbx_1__8_.mux_top_ipin_9.sky130_fd_sc_hd__mux2_1_9_X
+ sky130_fd_sc_hd__mux2_1
XANTENNA_sb_8__8_.mux_left_track_55.mux_l1_in_0__A0 net160 VGND VGND VPWR VPWR sky130_fd_sc_hd__diode_2
X_294_ sb_8__8_.mux_left_track_47.out VGND VGND VPWR VPWR net108 sky130_fd_sc_hd__clkbuf_2
XFILLER_5_321 VGND VGND VPWR VPWR sky130_fd_sc_hd__decap_4
Xgrid_clb_8__8_.logical_tile_clb_mode_clb__0.logical_tile_clb_mode_default__fle_2.logical_tile_clb_mode_default__fle_mode_physical__fabric_0.logical_tile_clb_mode_default__fle_mode_physical__fabric_mode_default__frac_logic_0.logical_tile_clb_mode_default__fle_mode_physical__fabric_mode_default__frac_logic_mode_default__frac_lut4_0.frac_lut4_0_.frac_lut4_mux_0_.mux_l1_in_4_
+ grid_clb_8__8_.logical_tile_clb_mode_clb__0.logical_tile_clb_mode_default__fle_2.logical_tile_clb_mode_default__fle_mode_physical__fabric_0.logical_tile_clb_mode_default__fle_mode_physical__fabric_mode_default__frac_logic_0.logical_tile_clb_mode_default__fle_mode_physical__fabric_mode_default__frac_logic_mode_default__frac_lut4_0.frac_lut4_0_.frac_lut4_mux_0_.in\[9\]
+ grid_clb_8__8_.logical_tile_clb_mode_clb__0.logical_tile_clb_mode_default__fle_2.logical_tile_clb_mode_default__fle_mode_physical__fabric_0.logical_tile_clb_mode_default__fle_mode_physical__fabric_mode_default__frac_logic_0.logical_tile_clb_mode_default__fle_mode_physical__fabric_mode_default__frac_logic_mode_default__frac_lut4_0.frac_lut4_0_.frac_lut4_mux_0_.in\[8\]
+ grid_clb_8__8_.logical_tile_clb_mode_clb__0.logical_tile_clb_mode_default__fle_2.logical_tile_clb_mode_default__fle_mode_physical__fabric_0.logical_tile_clb_mode_default__fle_mode_physical__fabric_mode_default__frac_logic_0.logical_tile_clb_mode_default__fle_mode_physical__fabric_mode_default__frac_logic_mode_default__frac_lut4_0.frac_lut4_0_.sky130_fd_sc_hd__buf_2_0_X
+ VGND VGND VPWR VPWR grid_clb_8__8_.logical_tile_clb_mode_clb__0.logical_tile_clb_mode_default__fle_2.logical_tile_clb_mode_default__fle_mode_physical__fabric_0.logical_tile_clb_mode_default__fle_mode_physical__fabric_mode_default__frac_logic_0.logical_tile_clb_mode_default__fle_mode_physical__fabric_mode_default__frac_logic_mode_default__frac_lut4_0.frac_lut4_0_.frac_lut4_mux_0_.sky130_fd_sc_hd__mux2_1_4_X
+ sky130_fd_sc_hd__mux2_1
XANTENNA_hold3_A reset VGND VGND VPWR VPWR sky130_fd_sc_hd__diode_2
XFILLER_95_169 VGND VGND VPWR VPWR sky130_fd_sc_hd__decap_4
XFILLER_64_523 VGND VGND VPWR VPWR sky130_fd_sc_hd__decap_4
XANTENNA_grid_clb_8__8_.logical_tile_clb_mode_clb__0.logical_tile_clb_mode_default__fle_7.logical_tile_clb_mode_default__fle_mode_physical__fabric_0.logical_tile_clb_mode_default__fle_mode_physical__fabric_mode_default__frac_logic_0.logical_tile_clb_mode_default__fle_mode_physical__fabric_mode_default__frac_logic_mode_default__frac_lut4_0.frac_lut4_0_.frac_lut4_mux_0_.mux_l1_in_1__S
+ grid_clb_8__8_.logical_tile_clb_mode_clb__0.logical_tile_clb_mode_default__fle_7.logical_tile_clb_mode_default__fle_mode_physical__fabric_0.logical_tile_clb_mode_default__fle_mode_physical__fabric_mode_default__frac_logic_0.logical_tile_clb_mode_default__fle_mode_physical__fabric_mode_default__frac_logic_mode_default__frac_lut4_0.frac_lut4_0_.sky130_fd_sc_hd__buf_2_0_X
+ VGND VGND VPWR VPWR sky130_fd_sc_hd__diode_2
XFILLER_51_206 VGND VGND VPWR VPWR sky130_fd_sc_hd__decap_4
XFILLER_51_217 VGND VGND VPWR VPWR sky130_fd_sc_hd__fill_2
XFILLER_17_494 VGND VGND VPWR VPWR sky130_fd_sc_hd__decap_4
XANTENNA_sb_8__8_.mem_left_track_27.sky130_fd_sc_hd__dfrtp_1_1__RESET_B net167 VGND
+ VGND VPWR VPWR sky130_fd_sc_hd__diode_2
Xsb_8__8_.mux_bottom_track_33.mux_l1_in_1_ net263 net6 sb_8__8_.mem_bottom_track_33.mem_out\[0\]
+ VGND VGND VPWR VPWR sb_8__8_.mux_bottom_track_33.sky130_fd_sc_hd__mux2_1_1_X sky130_fd_sc_hd__mux2_1
XFILLER_32_453 VGND VGND VPWR VPWR sky130_fd_sc_hd__fill_1
XFILLER_32_486 VGND VGND VPWR VPWR sky130_fd_sc_hd__decap_3
XANTENNA_cbx_8__8_.cbx_1__8_.mem_top_ipin_13.sky130_fd_sc_hd__dfrtp_1_0__RESET_B net167
+ VGND VGND VPWR VPWR sky130_fd_sc_hd__diode_2
XANTENNA__304__A sb_8__8_.mux_left_track_27.out VGND VGND VPWR VPWR sky130_fd_sc_hd__diode_2
XFILLER_59_306 VGND VGND VPWR VPWR sky130_fd_sc_hd__decap_4
Xgrid_clb_8__8_.logical_tile_clb_mode_clb__0.logical_tile_clb_mode_default__fle_6.logical_tile_clb_mode_default__fle_mode_physical__fabric_0.logical_tile_clb_mode_default__fle_mode_physical__fabric_mode_default__frac_logic_0.mux_frac_logic_out_0.mux_l2_in_0_
+ net238 grid_clb_8__8_.logical_tile_clb_mode_clb__0.logical_tile_clb_mode_default__fle_6.logical_tile_clb_mode_default__fle_mode_physical__fabric_0.logical_tile_clb_mode_default__fle_mode_physical__fabric_mode_default__frac_logic_0.mux_frac_logic_out_0.sky130_fd_sc_hd__mux2_1_0_X
+ grid_clb_8__8_.logical_tile_clb_mode_clb__0.logical_tile_clb_mode_default__fle_6.logical_tile_clb_mode_default__fle_mode_physical__fabric_0.logical_tile_clb_mode_default__fle_mode_physical__fabric_mode_default__frac_logic_0.mem_frac_logic_out_0.ccff_tail
+ VGND VGND VPWR VPWR grid_clb_8__8_.logical_tile_clb_mode_clb__0.logical_tile_clb_mode_default__fle_6.logical_tile_clb_mode_default__fle_mode_physical__fabric_0.logical_tile_clb_mode_default__fle_mode_physical__fabric_mode_default__frac_logic_0.mux_frac_logic_out_0.out
+ sky130_fd_sc_hd__mux2_1
XFILLER_86_125 VGND VGND VPWR VPWR sky130_ef_sc_hd__decap_12
XFILLER_74_309 VGND VGND VPWR VPWR sky130_fd_sc_hd__fill_2
Xsb_8__8_.mux_left_track_37.sky130_fd_sc_hd__buf_4_0_ sb_8__8_.mux_left_track_37.sky130_fd_sc_hd__mux2_1_1_X
+ VGND VGND VPWR VPWR sb_8__8_.mux_left_track_37.out sky130_fd_sc_hd__clkbuf_2
XFILLER_27_225 VGND VGND VPWR VPWR sky130_fd_sc_hd__decap_8
XFILLER_42_206 VGND VGND VPWR VPWR sky130_fd_sc_hd__fill_2
XFILLER_42_217 VGND VGND VPWR VPWR sky130_fd_sc_hd__decap_4
XFILLER_10_125 VGND VGND VPWR VPWR sky130_fd_sc_hd__decap_4
XFILLER_23_486 VGND VGND VPWR VPWR sky130_fd_sc_hd__fill_2
Xsb_8__8_.mem_left_track_47.sky130_fd_sc_hd__dfrtp_1_1_ clknet_leaf_6_prog_clk net747
+ net167 VGND VGND VPWR VPWR sb_8__8_.mem_left_track_47.ccff_tail sky130_fd_sc_hd__dfrtp_1
XFILLER_12_98 VGND VGND VPWR VPWR sky130_fd_sc_hd__decap_4
Xcby_8__8_.cby_8__8_.mux_right_ipin_12.mux_l2_in_1_ cby_8__8_.cby_8__8_.mux_right_ipin_12.sky130_fd_sc_hd__mux2_1_3_X
+ net369 cby_8__8_.cby_8__8_.mem_right_ipin_12.mem_out\[1\] VGND VGND VPWR VPWR cby_8__8_.cby_8__8_.mux_right_ipin_12.sky130_fd_sc_hd__mux2_1_6_X
+ sky130_fd_sc_hd__mux2_1
Xhold170 grid_clb_8__8_.logical_tile_clb_mode_clb__0.logical_tile_clb_mode_default__fle_0.ccff_tail
+ VGND VGND VPWR VPWR net484 sky130_fd_sc_hd__clkdlybuf4s25_1
Xhold192 grid_clb_8__8_.logical_tile_clb_mode_clb__0.logical_tile_clb_mode_default__fle_0.logical_tile_clb_mode_default__fle_mode_physical__fabric_0.logical_tile_clb_mode_default__fle_mode_physical__fabric_mode_default__frac_logic_0.logical_tile_clb_mode_default__fle_mode_physical__fabric_mode_default__frac_logic_mode_default__frac_lut4_0.frac_lut4_0_.frac_lut4_mux_0_.in\[9\]
+ VGND VGND VPWR VPWR net506 sky130_fd_sc_hd__clkdlybuf4s25_1
Xhold181 cbx_8__8_.cbx_1__8_.ccff_tail VGND VGND VPWR VPWR net495 sky130_fd_sc_hd__clkdlybuf4s25_1
XFILLER_77_125 VGND VGND VPWR VPWR sky130_fd_sc_hd__decap_4
XFILLER_77_169 VGND VGND VPWR VPWR sky130_fd_sc_hd__fill_2
XFILLER_46_501 VGND VGND VPWR VPWR sky130_fd_sc_hd__decap_4
XFILLER_92_117 VGND VGND VPWR VPWR sky130_fd_sc_hd__fill_1
Xgrid_clb_8__8_.logical_tile_clb_mode_clb__0.logical_tile_clb_mode_default__fle_2.logical_tile_clb_mode_default__fle_mode_physical__fabric_0.logical_tile_clb_mode_default__fle_mode_physical__fabric_mode_default__frac_logic_0.logical_tile_clb_mode_default__fle_mode_physical__fabric_mode_default__frac_logic_mode_default__frac_lut4_0.frac_lut4_0_.frac_lut4_mux_0_.mux_l4_in_0_
+ grid_clb_8__8_.logical_tile_clb_mode_clb__0.logical_tile_clb_mode_default__fle_2.logical_tile_clb_mode_default__fle_mode_physical__fabric_0.logical_tile_clb_mode_default__fle_mode_physical__fabric_mode_default__frac_logic_0.logical_tile_clb_mode_default__fle_mode_physical__fabric_mode_default__frac_logic_mode_default__frac_lut4_0.frac_lut4_0_.frac_lut4_mux_0_.sky130_fd_sc_hd__mux2_1_13_X
+ grid_clb_8__8_.logical_tile_clb_mode_clb__0.logical_tile_clb_mode_default__fle_2.logical_tile_clb_mode_default__fle_mode_physical__fabric_0.logical_tile_clb_mode_default__fle_mode_physical__fabric_mode_default__frac_logic_0.logical_tile_clb_mode_default__fle_mode_physical__fabric_mode_default__frac_logic_mode_default__frac_lut4_0.frac_lut4_0_.frac_lut4_mux_0_.sky130_fd_sc_hd__mux2_1_12_X
+ grid_clb_8__8_.logical_tile_clb_mode_clb__0.logical_tile_clb_mode_default__fle_2.logical_tile_clb_mode_default__fle_mode_physical__fabric_0.logical_tile_clb_mode_default__fle_mode_physical__fabric_mode_default__frac_logic_0.logical_tile_clb_mode_default__fle_mode_physical__fabric_mode_default__frac_logic_mode_default__frac_lut4_0.frac_lut4_0_.sky130_fd_sc_hd__buf_2_3_X
+ VGND VGND VPWR VPWR grid_clb_8__8_.logical_tile_clb_mode_clb__0.logical_tile_clb_mode_default__fle_2.logical_tile_clb_mode_default__fle_mode_physical__fabric_0.logical_tile_clb_mode_default__fle_mode_physical__fabric_mode_default__frac_logic_0.logical_tile_clb_mode_default__fle_mode_physical__fabric_mode_default__frac_logic_mode_default__frac_lut4_0.frac_lut4_0_.frac_lut4_mux_0_.sky130_fd_sc_hd__mux2_1_14_X
+ sky130_fd_sc_hd__mux2_1
XFILLER_18_214 VGND VGND VPWR VPWR sky130_fd_sc_hd__fill_1
XFILLER_85_191 VGND VGND VPWR VPWR sky130_fd_sc_hd__decap_6
XFILLER_33_206 VGND VGND VPWR VPWR sky130_fd_sc_hd__decap_4
XFILLER_33_239 VGND VGND VPWR VPWR sky130_fd_sc_hd__decap_6
Xgrid_clb_8__8_.logical_tile_clb_mode_clb__0.logical_tile_clb_mode_default__fle_3.logical_tile_clb_mode_default__fle_mode_physical__fabric_0.logical_tile_clb_mode_default__fle_mode_physical__fabric_mode_default__frac_logic_0.logical_tile_clb_mode_default__fle_mode_physical__fabric_mode_default__frac_logic_mode_default__carry_follower_0.sky130_fd_sc_hd__mux2_1_wrapper_0_
+ grid_clb_8__8_.logical_tile_clb_mode_clb__0.logical_tile_clb_mode_default__fle_3.logical_tile_clb_mode_default__fle_mode_physical__fabric_0.logical_tile_clb_mode_default__fle_mode_physical__fabric_mode_default__frac_logic_0.direct_interc_5_.in
+ grid_clb_8__8_.logical_tile_clb_mode_clb__0.direct_interc_52_.in grid_clb_8__8_.logical_tile_clb_mode_clb__0.logical_tile_clb_mode_default__fle_3.logical_tile_clb_mode_default__fle_mode_physical__fabric_0.logical_tile_clb_mode_default__fle_mode_physical__fabric_mode_default__frac_logic_0.direct_interc_7_.in
+ VGND VGND VPWR VPWR grid_clb_8__8_.logical_tile_clb_mode_clb__0.direct_interc_61_.in
+ sky130_fd_sc_hd__mux2_1
XFILLER_14_442 VGND VGND VPWR VPWR sky130_fd_sc_hd__decap_4
X_346_ sb_8__8_.mux_bottom_track_3.out VGND VGND VPWR VPWR net132 sky130_fd_sc_hd__clkbuf_2
Xsb_8__8_.mux_bottom_track_33.mux_l1_in_1__263 VGND VGND VPWR VPWR net263 sb_8__8_.mux_bottom_track_33.mux_l1_in_1__263/LO
+ sky130_fd_sc_hd__conb_1
XANTENNA_clkbuf_leaf_23_prog_clk_A clknet_3_6__leaf_prog_clk VGND VGND VPWR VPWR sky130_fd_sc_hd__diode_2
XANTENNA_cbx_8__8_.cbx_1__8_.mux_bottom_ipin_3.mux_l1_in_4__A1 net31 VGND VGND VPWR
+ VPWR sky130_fd_sc_hd__diode_2
XANTENNA_sb_8__8_.mux_left_track_47.mux_l1_in_0__A1 net60 VGND VGND VPWR VPWR sky130_fd_sc_hd__diode_2
XFILLER_68_136 VGND VGND VPWR VPWR sky130_fd_sc_hd__fill_2
XFILLER_68_125 VGND VGND VPWR VPWR sky130_fd_sc_hd__fill_2
XANTENNA_cbx_8__8_.cbx_1__8_.mem_top_ipin_12.sky130_fd_sc_hd__dfrtp_1_1__D cbx_8__8_.cbx_1__8_.mem_top_ipin_12.mem_out\[0\]
+ VGND VGND VPWR VPWR sky130_fd_sc_hd__diode_2
XFILLER_56_309 VGND VGND VPWR VPWR sky130_ef_sc_hd__decap_12
Xcbx_8__8_.cbx_1__8_.mux_top_ipin_4.mux_l1_in_3_ sb_8__8_.mux_left_track_29.out net9
+ cbx_8__8_.cbx_1__8_.mem_top_ipin_4.mem_out\[0\] VGND VGND VPWR VPWR cbx_8__8_.cbx_1__8_.mux_top_ipin_4.sky130_fd_sc_hd__mux2_1_3_X
+ sky130_fd_sc_hd__mux2_1
XFILLER_49_383 VGND VGND VPWR VPWR sky130_fd_sc_hd__fill_2
XFILLER_64_331 VGND VGND VPWR VPWR sky130_fd_sc_hd__decap_4
XFILLER_24_206 VGND VGND VPWR VPWR sky130_fd_sc_hd__decap_4
XFILLER_52_515 VGND VGND VPWR VPWR sky130_ef_sc_hd__decap_12
XFILLER_64_397 VGND VGND VPWR VPWR sky130_fd_sc_hd__fill_1
XFILLER_32_250 VGND VGND VPWR VPWR sky130_fd_sc_hd__fill_2
XFILLER_32_272 VGND VGND VPWR VPWR sky130_fd_sc_hd__fill_1
Xcby_8__8_.cby_8__8_.mux_right_ipin_13.sky130_fd_sc_hd__buf_4_0_ cby_8__8_.cby_8__8_.mux_right_ipin_13.sky130_fd_sc_hd__mux2_1_9_X
+ VGND VGND VPWR VPWR cby_8__8_.cby_8__8_.left_grid_right_width_0_height_0_subtile_0__pin_I7_1_
+ sky130_fd_sc_hd__clkbuf_1
XFILLER_59_136 VGND VGND VPWR VPWR sky130_fd_sc_hd__fill_2
XFILLER_59_169 VGND VGND VPWR VPWR sky130_fd_sc_hd__fill_2
XFILLER_59_147 VGND VGND VPWR VPWR sky130_fd_sc_hd__fill_2
XFILLER_87_489 VGND VGND VPWR VPWR sky130_ef_sc_hd__decap_12
Xgrid_clb_8__8_.logical_tile_clb_mode_clb__0.logical_tile_clb_mode_default__fle_0.logical_tile_clb_mode_default__fle_mode_physical__fabric_0.mem_fabric_out_1.sky130_fd_sc_hd__dfrtp_1_1_
+ clknet_leaf_25_prog_clk net688 net169 VGND VGND VPWR VPWR grid_clb_8__8_.logical_tile_clb_mode_clb__0.logical_tile_clb_mode_default__fle_0.logical_tile_clb_mode_default__fle_mode_physical__fabric_0.mem_fabric_out_1.ccff_tail
+ sky130_fd_sc_hd__dfrtp_1
Xcbx_8__8_.cbx_1__8_.mux_top_ipin_9.mux_l3_in_1_ cbx_8__8_.cbx_1__8_.mux_top_ipin_9.sky130_fd_sc_hd__mux2_1_6_X
+ cbx_8__8_.cbx_1__8_.mux_top_ipin_9.sky130_fd_sc_hd__mux2_1_5_X cbx_8__8_.cbx_1__8_.mem_top_ipin_9.mem_out\[2\]
+ VGND VGND VPWR VPWR cbx_8__8_.cbx_1__8_.mux_top_ipin_9.sky130_fd_sc_hd__mux2_1_8_X
+ sky130_fd_sc_hd__mux2_1
XFILLER_28_512 VGND VGND VPWR VPWR sky130_fd_sc_hd__decap_4
XANTENNA_cbx_8__8_.cbx_1__8_.mux_bottom_ipin_1.mux_l1_in_3__S cbx_8__8_.cbx_1__8_.mem_bottom_ipin_1.mem_out\[0\]
+ VGND VGND VPWR VPWR sky130_fd_sc_hd__diode_2
XFILLER_55_331 VGND VGND VPWR VPWR sky130_fd_sc_hd__decap_4