*SPEF "ieee 1481-1999"
*DESIGN "bottom_right_tile"
*DATE "11:11:11 Fri 11 11, 1111"
*VENDOR "OpenRCX"
*PROGRAM "Parallel Extraction"
*VERSION "1.0"
*DESIGN_FLOW "NAME_SCOPE LOCAL" "PIN_CAP NONE"
*DIVIDER /
*DELIMITER :
*BUS_DELIMITER []
*T_UNIT 1 NS
*C_UNIT 1 PF
*R_UNIT 1 OHM
*L_UNIT 1 HENRY

*NAME_MAP
*3 ccff_head
*4 ccff_head_1
*5 ccff_tail
*6 ccff_tail_0
*7 chanx_left_in[0]
*8 chanx_left_in[10]
*9 chanx_left_in[11]
*10 chanx_left_in[12]
*11 chanx_left_in[13]
*12 chanx_left_in[14]
*13 chanx_left_in[15]
*14 chanx_left_in[16]
*15 chanx_left_in[17]
*16 chanx_left_in[18]
*17 chanx_left_in[19]
*18 chanx_left_in[1]
*19 chanx_left_in[20]
*20 chanx_left_in[21]
*21 chanx_left_in[22]
*22 chanx_left_in[23]
*23 chanx_left_in[24]
*24 chanx_left_in[25]
*25 chanx_left_in[26]
*26 chanx_left_in[27]
*27 chanx_left_in[28]
*28 chanx_left_in[29]
*29 chanx_left_in[2]
*30 chanx_left_in[3]
*31 chanx_left_in[4]
*32 chanx_left_in[5]
*33 chanx_left_in[6]
*34 chanx_left_in[7]
*35 chanx_left_in[8]
*36 chanx_left_in[9]
*37 chanx_left_out[0]
*38 chanx_left_out[10]
*39 chanx_left_out[11]
*40 chanx_left_out[12]
*41 chanx_left_out[13]
*42 chanx_left_out[14]
*43 chanx_left_out[15]
*44 chanx_left_out[16]
*45 chanx_left_out[17]
*46 chanx_left_out[18]
*47 chanx_left_out[19]
*48 chanx_left_out[1]
*49 chanx_left_out[20]
*50 chanx_left_out[21]
*51 chanx_left_out[22]
*52 chanx_left_out[23]
*53 chanx_left_out[24]
*54 chanx_left_out[25]
*55 chanx_left_out[26]
*56 chanx_left_out[27]
*57 chanx_left_out[28]
*58 chanx_left_out[29]
*59 chanx_left_out[2]
*60 chanx_left_out[3]
*61 chanx_left_out[4]
*62 chanx_left_out[5]
*63 chanx_left_out[6]
*64 chanx_left_out[7]
*65 chanx_left_out[8]
*66 chanx_left_out[9]
*67 chany_top_in[0]
*68 chany_top_in[10]
*69 chany_top_in[11]
*70 chany_top_in[12]
*71 chany_top_in[13]
*72 chany_top_in[14]
*73 chany_top_in[15]
*74 chany_top_in[16]
*75 chany_top_in[17]
*76 chany_top_in[18]
*77 chany_top_in[19]
*78 chany_top_in[1]
*79 chany_top_in[20]
*80 chany_top_in[21]
*81 chany_top_in[22]
*82 chany_top_in[23]
*83 chany_top_in[24]
*84 chany_top_in[25]
*85 chany_top_in[26]
*86 chany_top_in[27]
*87 chany_top_in[28]
*88 chany_top_in[29]
*89 chany_top_in[2]
*90 chany_top_in[3]
*91 chany_top_in[4]
*92 chany_top_in[5]
*93 chany_top_in[6]
*94 chany_top_in[7]
*95 chany_top_in[8]
*96 chany_top_in[9]
*97 chany_top_out[0]
*98 chany_top_out[10]
*99 chany_top_out[11]
*100 chany_top_out[12]
*101 chany_top_out[13]
*102 chany_top_out[14]
*103 chany_top_out[15]
*104 chany_top_out[16]
*105 chany_top_out[17]
*106 chany_top_out[18]
*107 chany_top_out[19]
*108 chany_top_out[1]
*109 chany_top_out[20]
*110 chany_top_out[21]
*111 chany_top_out[22]
*112 chany_top_out[23]
*113 chany_top_out[24]
*114 chany_top_out[25]
*115 chany_top_out[26]
*116 chany_top_out[27]
*117 chany_top_out[28]
*118 chany_top_out[29]
*119 chany_top_out[2]
*120 chany_top_out[3]
*121 chany_top_out[4]
*122 chany_top_out[5]
*123 chany_top_out[6]
*124 chany_top_out[7]
*125 chany_top_out[8]
*126 chany_top_out[9]
*127 gfpga_pad_io_soc_dir[0]
*128 gfpga_pad_io_soc_dir[1]
*129 gfpga_pad_io_soc_dir[2]
*130 gfpga_pad_io_soc_dir[3]
*131 gfpga_pad_io_soc_in[0]
*132 gfpga_pad_io_soc_in[1]
*133 gfpga_pad_io_soc_in[2]
*134 gfpga_pad_io_soc_in[3]
*135 gfpga_pad_io_soc_out[0]
*136 gfpga_pad_io_soc_out[1]
*137 gfpga_pad_io_soc_out[2]
*138 gfpga_pad_io_soc_out[3]
*139 isol_n
*140 prog_clk
*141 prog_reset
*142 reset
*143 test_enable
*144 top_left_grid_right_width_0_height_0_subtile_0__pin_O_10_
*145 top_left_grid_right_width_0_height_0_subtile_0__pin_O_11_
*146 top_left_grid_right_width_0_height_0_subtile_0__pin_O_12_
*147 top_left_grid_right_width_0_height_0_subtile_0__pin_O_13_
*148 top_left_grid_right_width_0_height_0_subtile_0__pin_O_14_
*149 top_left_grid_right_width_0_height_0_subtile_0__pin_O_15_
*150 top_left_grid_right_width_0_height_0_subtile_0__pin_O_8_
*151 top_left_grid_right_width_0_height_0_subtile_0__pin_O_9_
*152 top_right_grid_left_width_0_height_0_subtile_0__pin_inpad_0_
*153 top_right_grid_left_width_0_height_0_subtile_1__pin_inpad_0_
*154 top_right_grid_left_width_0_height_0_subtile_2__pin_inpad_0_
*155 top_right_grid_left_width_0_height_0_subtile_3__pin_inpad_0_
*156 top_width_0_height_0_subtile_0__pin_inpad_0_
*157 top_width_0_height_0_subtile_1__pin_inpad_0_
*158 top_width_0_height_0_subtile_2__pin_inpad_0_
*159 top_width_0_height_0_subtile_3__pin_inpad_0_
*160 cbx_8__0_\.bottom_grid_top_width_0_height_0_subtile_0__pin_outpad_0_
*161 cbx_8__0_\.bottom_grid_top_width_0_height_0_subtile_1__pin_outpad_0_
*162 cbx_8__0_\.bottom_grid_top_width_0_height_0_subtile_2__pin_outpad_0_
*163 cbx_8__0_\.bottom_grid_top_width_0_height_0_subtile_3__pin_outpad_0_
*164 cbx_8__0_\.cbx_8__0_\.ccff_head
*165 cbx_8__0_\.cbx_8__0_\.mem_top_ipin_0\.ccff_tail
*166 cbx_8__0_\.cbx_8__0_\.mem_top_ipin_0\.mem_out\[0\]
*167 cbx_8__0_\.cbx_8__0_\.mem_top_ipin_0\.mem_out\[1\]
*168 cbx_8__0_\.cbx_8__0_\.mem_top_ipin_0\.mem_out\[2\]
*169 cbx_8__0_\.cbx_8__0_\.mem_top_ipin_1\.ccff_tail
*170 cbx_8__0_\.cbx_8__0_\.mem_top_ipin_1\.mem_out\[0\]
*171 cbx_8__0_\.cbx_8__0_\.mem_top_ipin_1\.mem_out\[1\]
*172 cbx_8__0_\.cbx_8__0_\.mem_top_ipin_1\.mem_out\[2\]
*173 cbx_8__0_\.cbx_8__0_\.mem_top_ipin_2\.ccff_tail
*174 cbx_8__0_\.cbx_8__0_\.mem_top_ipin_2\.mem_out\[0\]
*175 cbx_8__0_\.cbx_8__0_\.mem_top_ipin_2\.mem_out\[1\]
*176 cbx_8__0_\.cbx_8__0_\.mem_top_ipin_2\.mem_out\[2\]
*177 cbx_8__0_\.cbx_8__0_\.mem_top_ipin_3\.mem_out\[0\]
*178 cbx_8__0_\.cbx_8__0_\.mem_top_ipin_3\.mem_out\[1\]
*179 cbx_8__0_\.cbx_8__0_\.mem_top_ipin_3\.mem_out\[2\]
*180 cbx_8__0_\.cbx_8__0_\.mux_top_ipin_0\.sky130_fd_sc_hd__mux2_1_0_X
*181 cbx_8__0_\.cbx_8__0_\.mux_top_ipin_0\.sky130_fd_sc_hd__mux2_1_10_X
*182 cbx_8__0_\.cbx_8__0_\.mux_top_ipin_0\.sky130_fd_sc_hd__mux2_1_11_X
*183 cbx_8__0_\.cbx_8__0_\.mux_top_ipin_0\.sky130_fd_sc_hd__mux2_1_1_X
*184 cbx_8__0_\.cbx_8__0_\.mux_top_ipin_0\.sky130_fd_sc_hd__mux2_1_2_X
*185 cbx_8__0_\.cbx_8__0_\.mux_top_ipin_0\.sky130_fd_sc_hd__mux2_1_3_X
*186 cbx_8__0_\.cbx_8__0_\.mux_top_ipin_0\.sky130_fd_sc_hd__mux2_1_4_X
*187 cbx_8__0_\.cbx_8__0_\.mux_top_ipin_0\.sky130_fd_sc_hd__mux2_1_5_X
*188 cbx_8__0_\.cbx_8__0_\.mux_top_ipin_0\.sky130_fd_sc_hd__mux2_1_6_X
*189 cbx_8__0_\.cbx_8__0_\.mux_top_ipin_0\.sky130_fd_sc_hd__mux2_1_7_X
*190 cbx_8__0_\.cbx_8__0_\.mux_top_ipin_0\.sky130_fd_sc_hd__mux2_1_8_X
*191 cbx_8__0_\.cbx_8__0_\.mux_top_ipin_0\.sky130_fd_sc_hd__mux2_1_9_X
*192 cbx_8__0_\.cbx_8__0_\.mux_top_ipin_1\.sky130_fd_sc_hd__mux2_1_0_X
*193 cbx_8__0_\.cbx_8__0_\.mux_top_ipin_1\.sky130_fd_sc_hd__mux2_1_10_X
*194 cbx_8__0_\.cbx_8__0_\.mux_top_ipin_1\.sky130_fd_sc_hd__mux2_1_11_X
*195 cbx_8__0_\.cbx_8__0_\.mux_top_ipin_1\.sky130_fd_sc_hd__mux2_1_1_X
*196 cbx_8__0_\.cbx_8__0_\.mux_top_ipin_1\.sky130_fd_sc_hd__mux2_1_2_X
*197 cbx_8__0_\.cbx_8__0_\.mux_top_ipin_1\.sky130_fd_sc_hd__mux2_1_3_X
*198 cbx_8__0_\.cbx_8__0_\.mux_top_ipin_1\.sky130_fd_sc_hd__mux2_1_4_X
*199 cbx_8__0_\.cbx_8__0_\.mux_top_ipin_1\.sky130_fd_sc_hd__mux2_1_5_X
*200 cbx_8__0_\.cbx_8__0_\.mux_top_ipin_1\.sky130_fd_sc_hd__mux2_1_6_X
*201 cbx_8__0_\.cbx_8__0_\.mux_top_ipin_1\.sky130_fd_sc_hd__mux2_1_7_X
*202 cbx_8__0_\.cbx_8__0_\.mux_top_ipin_1\.sky130_fd_sc_hd__mux2_1_8_X
*203 cbx_8__0_\.cbx_8__0_\.mux_top_ipin_1\.sky130_fd_sc_hd__mux2_1_9_X
*204 cbx_8__0_\.cbx_8__0_\.mux_top_ipin_2\.sky130_fd_sc_hd__mux2_1_0_X
*205 cbx_8__0_\.cbx_8__0_\.mux_top_ipin_2\.sky130_fd_sc_hd__mux2_1_10_X
*206 cbx_8__0_\.cbx_8__0_\.mux_top_ipin_2\.sky130_fd_sc_hd__mux2_1_11_X
*207 cbx_8__0_\.cbx_8__0_\.mux_top_ipin_2\.sky130_fd_sc_hd__mux2_1_1_X
*208 cbx_8__0_\.cbx_8__0_\.mux_top_ipin_2\.sky130_fd_sc_hd__mux2_1_2_X
*209 cbx_8__0_\.cbx_8__0_\.mux_top_ipin_2\.sky130_fd_sc_hd__mux2_1_3_X
*210 cbx_8__0_\.cbx_8__0_\.mux_top_ipin_2\.sky130_fd_sc_hd__mux2_1_4_X
*211 cbx_8__0_\.cbx_8__0_\.mux_top_ipin_2\.sky130_fd_sc_hd__mux2_1_5_X
*212 cbx_8__0_\.cbx_8__0_\.mux_top_ipin_2\.sky130_fd_sc_hd__mux2_1_6_X
*213 cbx_8__0_\.cbx_8__0_\.mux_top_ipin_2\.sky130_fd_sc_hd__mux2_1_7_X
*214 cbx_8__0_\.cbx_8__0_\.mux_top_ipin_2\.sky130_fd_sc_hd__mux2_1_8_X
*215 cbx_8__0_\.cbx_8__0_\.mux_top_ipin_2\.sky130_fd_sc_hd__mux2_1_9_X
*216 cbx_8__0_\.cbx_8__0_\.mux_top_ipin_3\.sky130_fd_sc_hd__mux2_1_0_X
*217 cbx_8__0_\.cbx_8__0_\.mux_top_ipin_3\.sky130_fd_sc_hd__mux2_1_10_X
*218 cbx_8__0_\.cbx_8__0_\.mux_top_ipin_3\.sky130_fd_sc_hd__mux2_1_11_X
*219 cbx_8__0_\.cbx_8__0_\.mux_top_ipin_3\.sky130_fd_sc_hd__mux2_1_1_X
*220 cbx_8__0_\.cbx_8__0_\.mux_top_ipin_3\.sky130_fd_sc_hd__mux2_1_2_X
*221 cbx_8__0_\.cbx_8__0_\.mux_top_ipin_3\.sky130_fd_sc_hd__mux2_1_3_X
*222 cbx_8__0_\.cbx_8__0_\.mux_top_ipin_3\.sky130_fd_sc_hd__mux2_1_4_X
*223 cbx_8__0_\.cbx_8__0_\.mux_top_ipin_3\.sky130_fd_sc_hd__mux2_1_5_X
*224 cbx_8__0_\.cbx_8__0_\.mux_top_ipin_3\.sky130_fd_sc_hd__mux2_1_6_X
*225 cbx_8__0_\.cbx_8__0_\.mux_top_ipin_3\.sky130_fd_sc_hd__mux2_1_7_X
*226 cbx_8__0_\.cbx_8__0_\.mux_top_ipin_3\.sky130_fd_sc_hd__mux2_1_8_X
*227 cbx_8__0_\.cbx_8__0_\.mux_top_ipin_3\.sky130_fd_sc_hd__mux2_1_9_X
*228 cbx_8__0_\.grid_io_bottom_bottom_8__0_\.logical_tile_io_mode_io__0\.ccff_tail
*229 cbx_8__0_\.grid_io_bottom_bottom_8__0_\.logical_tile_io_mode_io__0\.gfpga_pad_io_soc_dir
*230 cbx_8__0_\.grid_io_bottom_bottom_8__0_\.logical_tile_io_mode_io__0\.gfpga_pad_io_soc_out
*231 cbx_8__0_\.grid_io_bottom_bottom_8__0_\.logical_tile_io_mode_io__0\.logical_tile_io_mode_physical__iopad_0\.io_0_\.SOC_DIR_N
*232 cbx_8__0_\.grid_io_bottom_bottom_8__0_\.logical_tile_io_mode_io__1\.ccff_tail
*233 cbx_8__0_\.grid_io_bottom_bottom_8__0_\.logical_tile_io_mode_io__1\.gfpga_pad_io_soc_dir
*234 cbx_8__0_\.grid_io_bottom_bottom_8__0_\.logical_tile_io_mode_io__1\.gfpga_pad_io_soc_out
*235 cbx_8__0_\.grid_io_bottom_bottom_8__0_\.logical_tile_io_mode_io__1\.logical_tile_io_mode_physical__iopad_0\.io_0_\.SOC_DIR_N
*236 cbx_8__0_\.grid_io_bottom_bottom_8__0_\.logical_tile_io_mode_io__2\.ccff_tail
*237 cbx_8__0_\.grid_io_bottom_bottom_8__0_\.logical_tile_io_mode_io__2\.gfpga_pad_io_soc_dir
*238 cbx_8__0_\.grid_io_bottom_bottom_8__0_\.logical_tile_io_mode_io__2\.gfpga_pad_io_soc_out
*239 cbx_8__0_\.grid_io_bottom_bottom_8__0_\.logical_tile_io_mode_io__2\.logical_tile_io_mode_physical__iopad_0\.io_0_\.SOC_DIR_N
*240 cbx_8__0_\.grid_io_bottom_bottom_8__0_\.logical_tile_io_mode_io__3\.gfpga_pad_io_soc_dir
*241 cbx_8__0_\.grid_io_bottom_bottom_8__0_\.logical_tile_io_mode_io__3\.gfpga_pad_io_soc_out
*242 cbx_8__0_\.grid_io_bottom_bottom_8__0_\.logical_tile_io_mode_io__3\.logical_tile_io_mode_physical__iopad_0\.io_0_\.SOC_DIR_N
*243 clknet_0_prog_clk
*244 clknet_4_0_0_prog_clk
*245 clknet_4_10_0_prog_clk
*246 clknet_4_11_0_prog_clk
*247 clknet_4_12_0_prog_clk
*248 clknet_4_13_0_prog_clk
*249 clknet_4_14_0_prog_clk
*250 clknet_4_15_0_prog_clk
*251 clknet_4_1_0_prog_clk
*252 clknet_4_2_0_prog_clk
*253 clknet_4_3_0_prog_clk
*254 clknet_4_4_0_prog_clk
*255 clknet_4_5_0_prog_clk
*256 clknet_4_6_0_prog_clk
*257 clknet_4_7_0_prog_clk
*258 clknet_4_8_0_prog_clk
*259 clknet_4_9_0_prog_clk
*260 net1
*261 net10
*262 net100
*263 net101
*264 net102
*265 net103
*266 net104
*267 net105
*268 net106
*269 net107
*270 net108
*271 net109
*272 net11
*273 net110
*274 net111
*275 net112
*276 net113
*277 net114
*278 net115
*279 net116
*280 net117
*281 net118
*282 net119
*283 net12
*284 net120
*285 net121
*286 net122
*287 net123
*288 net124
*289 net125
*290 net126
*291 net127
*292 net128
*293 net129
*294 net13
*295 net130
*296 net131
*297 net132
*298 net133
*299 net134
*300 net135
*301 net136
*302 net137
*303 net138
*304 net139
*305 net14
*306 net140
*307 net141
*308 net142
*309 net143
*310 net144
*311 net145
*312 net146
*313 net147
*314 net148
*315 net149
*316 net15
*317 net150
*318 net151
*319 net152
*320 net153
*321 net154
*322 net155
*323 net156
*324 net157
*325 net158
*326 net159
*327 net16
*328 net160
*329 net161
*330 net162
*331 net163
*332 net164
*333 net165
*334 net166
*335 net167
*336 net168
*337 net169
*338 net17
*339 net170
*340 net171
*341 net172
*342 net173
*343 net174
*344 net175
*345 net176
*346 net177
*347 net178
*348 net179
*349 net18
*350 net180
*351 net181
*352 net182
*353 net183
*354 net184
*355 net185
*356 net186
*357 net187
*358 net188
*359 net189
*360 net19
*361 net190
*362 net191
*363 net192
*364 net193
*365 net194
*366 net195
*367 net196
*368 net197
*369 net198
*370 net199
*371 net2
*372 net20
*373 net200
*374 net201
*375 net202
*376 net203
*377 net204
*378 net205
*379 net206
*380 net207
*381 net208
*382 net209
*383 net21
*384 net210
*385 net211
*386 net212
*387 net213
*388 net214
*389 net215
*390 net216
*391 net217
*392 net218
*393 net219
*394 net22
*395 net220
*396 net221
*397 net222
*398 net223
*399 net224
*400 net225
*401 net226
*402 net227
*403 net228
*404 net229
*405 net23
*406 net230
*407 net231
*408 net232
*409 net233
*410 net234
*411 net235
*412 net236
*413 net237
*414 net238
*415 net239
*416 net24
*417 net25
*418 net26
*419 net27
*420 net28
*421 net29
*422 net3
*423 net30
*424 net31
*425 net32
*426 net33
*427 net34
*428 net35
*429 net36
*430 net37
*431 net38
*432 net39
*433 net4
*434 net40
*435 net41
*436 net42
*437 net43
*438 net44
*439 net45
*440 net46
*441 net47
*442 net48
*443 net49
*444 net5
*445 net50
*446 net51
*447 net52
*448 net53
*449 net54
*450 net55
*451 net56
*452 net57
*453 net58
*454 net59
*455 net6
*456 net60
*457 net61
*458 net62
*459 net63
*460 net64
*461 net65
*462 net66
*463 net67
*464 net68
*465 net69
*466 net7
*467 net70
*468 net71
*469 net72
*470 net73
*471 net74
*472 net75
*473 net76
*474 net77
*475 net78
*476 net79
*477 net8
*478 net80
*479 net81
*480 net82
*481 net83
*482 net84
*483 net85
*484 net86
*485 net87
*486 net88
*487 net89
*488 net9
*489 net90
*490 net91
*491 net92
*492 net93
*493 net94
*494 net95
*495 net96
*496 net97
*497 net98
*498 net99
*499 sb_8__0_\.mem_left_track_1\.ccff_head
*500 sb_8__0_\.mem_left_track_1\.ccff_tail
*501 sb_8__0_\.mem_left_track_1\.mem_out\[0\]
*502 sb_8__0_\.mem_left_track_11\.ccff_head
*503 sb_8__0_\.mem_left_track_11\.ccff_tail
*504 sb_8__0_\.mem_left_track_11\.mem_out\[0\]
*505 sb_8__0_\.mem_left_track_13\.ccff_tail
*506 sb_8__0_\.mem_left_track_13\.mem_out\[0\]
*507 sb_8__0_\.mem_left_track_15\.ccff_tail
*508 sb_8__0_\.mem_left_track_15\.mem_out\[0\]
*509 sb_8__0_\.mem_left_track_17\.ccff_tail
*510 sb_8__0_\.mem_left_track_17\.mem_out\[0\]
*511 sb_8__0_\.mem_left_track_19\.ccff_tail
*512 sb_8__0_\.mem_left_track_19\.mem_out\[0\]
*513 sb_8__0_\.mem_left_track_29\.ccff_tail
*514 sb_8__0_\.mem_left_track_29\.mem_out\[0\]
*515 sb_8__0_\.mem_left_track_3\.ccff_tail
*516 sb_8__0_\.mem_left_track_3\.mem_out\[0\]
*517 sb_8__0_\.mem_left_track_31\.ccff_tail
*518 sb_8__0_\.mem_left_track_31\.mem_out\[0\]
*519 sb_8__0_\.mem_left_track_33\.ccff_tail
*520 sb_8__0_\.mem_left_track_33\.mem_out\[0\]
*521 sb_8__0_\.mem_left_track_35\.ccff_tail
*522 sb_8__0_\.mem_left_track_35\.mem_out\[0\]
*523 sb_8__0_\.mem_left_track_45\.ccff_tail
*524 sb_8__0_\.mem_left_track_45\.mem_out\[0\]
*525 sb_8__0_\.mem_left_track_47\.ccff_tail
*526 sb_8__0_\.mem_left_track_47\.mem_out\[0\]
*527 sb_8__0_\.mem_left_track_49\.ccff_tail
*528 sb_8__0_\.mem_left_track_49\.mem_out\[0\]
*529 sb_8__0_\.mem_left_track_5\.ccff_tail
*530 sb_8__0_\.mem_left_track_5\.mem_out\[0\]
*531 sb_8__0_\.mem_left_track_51\.mem_out\[0\]
*532 sb_8__0_\.mem_left_track_7\.ccff_tail
*533 sb_8__0_\.mem_left_track_7\.mem_out\[0\]
*534 sb_8__0_\.mem_left_track_9\.mem_out\[0\]
*535 sb_8__0_\.mem_top_track_0\.ccff_tail
*536 sb_8__0_\.mem_top_track_0\.mem_out\[0\]
*537 sb_8__0_\.mem_top_track_0\.mem_out\[1\]
*538 sb_8__0_\.mem_top_track_10\.ccff_head
*539 sb_8__0_\.mem_top_track_10\.ccff_tail
*540 sb_8__0_\.mem_top_track_10\.mem_out\[0\]
*541 sb_8__0_\.mem_top_track_10\.mem_out\[1\]
*542 sb_8__0_\.mem_top_track_12\.ccff_tail
*543 sb_8__0_\.mem_top_track_12\.mem_out\[0\]
*544 sb_8__0_\.mem_top_track_14\.ccff_tail
*545 sb_8__0_\.mem_top_track_14\.mem_out\[0\]
*546 sb_8__0_\.mem_top_track_16\.ccff_tail
*547 sb_8__0_\.mem_top_track_16\.mem_out\[0\]
*548 sb_8__0_\.mem_top_track_18\.ccff_tail
*549 sb_8__0_\.mem_top_track_18\.mem_out\[0\]
*550 sb_8__0_\.mem_top_track_2\.ccff_tail
*551 sb_8__0_\.mem_top_track_2\.mem_out\[0\]
*552 sb_8__0_\.mem_top_track_2\.mem_out\[1\]
*553 sb_8__0_\.mem_top_track_20\.ccff_tail
*554 sb_8__0_\.mem_top_track_20\.mem_out\[0\]
*555 sb_8__0_\.mem_top_track_22\.ccff_tail
*556 sb_8__0_\.mem_top_track_22\.mem_out\[0\]
*557 sb_8__0_\.mem_top_track_24\.ccff_tail
*558 sb_8__0_\.mem_top_track_24\.mem_out\[0\]
*559 sb_8__0_\.mem_top_track_26\.ccff_tail
*560 sb_8__0_\.mem_top_track_26\.mem_out\[0\]
*561 sb_8__0_\.mem_top_track_28\.ccff_tail
*562 sb_8__0_\.mem_top_track_28\.mem_out\[0\]
*563 sb_8__0_\.mem_top_track_30\.ccff_tail
*564 sb_8__0_\.mem_top_track_30\.mem_out\[0\]
*565 sb_8__0_\.mem_top_track_32\.ccff_tail
*566 sb_8__0_\.mem_top_track_32\.mem_out\[0\]
*567 sb_8__0_\.mem_top_track_34\.ccff_tail
*568 sb_8__0_\.mem_top_track_34\.mem_out\[0\]
*569 sb_8__0_\.mem_top_track_36\.ccff_tail
*570 sb_8__0_\.mem_top_track_36\.mem_out\[0\]
*571 sb_8__0_\.mem_top_track_38\.ccff_tail
*572 sb_8__0_\.mem_top_track_38\.mem_out\[0\]
*573 sb_8__0_\.mem_top_track_4\.ccff_tail
*574 sb_8__0_\.mem_top_track_4\.mem_out\[0\]
*575 sb_8__0_\.mem_top_track_4\.mem_out\[1\]
*576 sb_8__0_\.mem_top_track_40\.ccff_tail
*577 sb_8__0_\.mem_top_track_40\.mem_out\[0\]
*578 sb_8__0_\.mem_top_track_42\.ccff_tail
*579 sb_8__0_\.mem_top_track_42\.mem_out\[0\]
*580 sb_8__0_\.mem_top_track_44\.ccff_tail
*581 sb_8__0_\.mem_top_track_44\.mem_out\[0\]
*582 sb_8__0_\.mem_top_track_46\.ccff_tail
*583 sb_8__0_\.mem_top_track_46\.mem_out\[0\]
*584 sb_8__0_\.mem_top_track_48\.ccff_tail
*585 sb_8__0_\.mem_top_track_48\.mem_out\[0\]
*586 sb_8__0_\.mem_top_track_50\.mem_out\[0\]
*587 sb_8__0_\.mem_top_track_6\.ccff_tail
*588 sb_8__0_\.mem_top_track_6\.mem_out\[0\]
*589 sb_8__0_\.mem_top_track_6\.mem_out\[1\]
*590 sb_8__0_\.mem_top_track_8\.mem_out\[0\]
*591 sb_8__0_\.mem_top_track_8\.mem_out\[1\]
*592 sb_8__0_\.mux_left_track_1\.out
*593 sb_8__0_\.mux_left_track_1\.sky130_fd_sc_hd__mux2_1_0_X
*594 sb_8__0_\.mux_left_track_1\.sky130_fd_sc_hd__mux2_1_1_X
*595 sb_8__0_\.mux_left_track_1\.sky130_fd_sc_hd__mux2_1_2_X
*596 sb_8__0_\.mux_left_track_11\.out
*597 sb_8__0_\.mux_left_track_11\.sky130_fd_sc_hd__mux2_1_0_X
*598 sb_8__0_\.mux_left_track_11\.sky130_fd_sc_hd__mux2_1_1_X
*599 sb_8__0_\.mux_left_track_13\.out
*600 sb_8__0_\.mux_left_track_13\.sky130_fd_sc_hd__mux2_1_0_X
*601 sb_8__0_\.mux_left_track_13\.sky130_fd_sc_hd__mux2_1_1_X
*602 sb_8__0_\.mux_left_track_15\.out
*603 sb_8__0_\.mux_left_track_15\.sky130_fd_sc_hd__mux2_1_0_X
*604 sb_8__0_\.mux_left_track_15\.sky130_fd_sc_hd__mux2_1_1_X
*605 sb_8__0_\.mux_left_track_17\.out
*606 sb_8__0_\.mux_left_track_17\.sky130_fd_sc_hd__mux2_1_0_X
*607 sb_8__0_\.mux_left_track_17\.sky130_fd_sc_hd__mux2_1_1_X
*608 sb_8__0_\.mux_left_track_19\.out
*609 sb_8__0_\.mux_left_track_19\.sky130_fd_sc_hd__mux2_1_0_X
*610 sb_8__0_\.mux_left_track_19\.sky130_fd_sc_hd__mux2_1_1_X
*611 sb_8__0_\.mux_left_track_29\.out
*612 sb_8__0_\.mux_left_track_29\.sky130_fd_sc_hd__mux2_1_0_X
*613 sb_8__0_\.mux_left_track_29\.sky130_fd_sc_hd__mux2_1_1_X
*614 sb_8__0_\.mux_left_track_3\.out
*615 sb_8__0_\.mux_left_track_3\.sky130_fd_sc_hd__mux2_1_0_X
*616 sb_8__0_\.mux_left_track_3\.sky130_fd_sc_hd__mux2_1_1_X
*617 sb_8__0_\.mux_left_track_31\.out
*618 sb_8__0_\.mux_left_track_31\.sky130_fd_sc_hd__mux2_1_0_X
*619 sb_8__0_\.mux_left_track_31\.sky130_fd_sc_hd__mux2_1_1_X
*620 sb_8__0_\.mux_left_track_33\.out
*621 sb_8__0_\.mux_left_track_33\.sky130_fd_sc_hd__mux2_1_0_X
*622 sb_8__0_\.mux_left_track_33\.sky130_fd_sc_hd__mux2_1_1_X
*623 sb_8__0_\.mux_left_track_35\.out
*624 sb_8__0_\.mux_left_track_35\.sky130_fd_sc_hd__mux2_1_0_X
*625 sb_8__0_\.mux_left_track_35\.sky130_fd_sc_hd__mux2_1_1_X
*626 sb_8__0_\.mux_left_track_45\.out
*627 sb_8__0_\.mux_left_track_45\.sky130_fd_sc_hd__mux2_1_0_X
*628 sb_8__0_\.mux_left_track_45\.sky130_fd_sc_hd__mux2_1_1_X
*629 sb_8__0_\.mux_left_track_47\.out
*630 sb_8__0_\.mux_left_track_47\.sky130_fd_sc_hd__mux2_1_0_X
*631 sb_8__0_\.mux_left_track_47\.sky130_fd_sc_hd__mux2_1_1_X
*632 sb_8__0_\.mux_left_track_49\.out
*633 sb_8__0_\.mux_left_track_49\.sky130_fd_sc_hd__mux2_1_0_X
*634 sb_8__0_\.mux_left_track_49\.sky130_fd_sc_hd__mux2_1_1_X
*635 sb_8__0_\.mux_left_track_5\.out
*636 sb_8__0_\.mux_left_track_5\.sky130_fd_sc_hd__mux2_1_0_X
*637 sb_8__0_\.mux_left_track_5\.sky130_fd_sc_hd__mux2_1_1_X
*638 sb_8__0_\.mux_left_track_51\.out
*639 sb_8__0_\.mux_left_track_51\.sky130_fd_sc_hd__mux2_1_0_X
*640 sb_8__0_\.mux_left_track_51\.sky130_fd_sc_hd__mux2_1_1_X
*641 sb_8__0_\.mux_left_track_7\.out
*642 sb_8__0_\.mux_left_track_7\.sky130_fd_sc_hd__mux2_1_0_X
*643 sb_8__0_\.mux_left_track_7\.sky130_fd_sc_hd__mux2_1_1_X
*644 sb_8__0_\.mux_left_track_7\.sky130_fd_sc_hd__mux2_1_2_X
*645 sb_8__0_\.mux_left_track_9\.out
*646 sb_8__0_\.mux_left_track_9\.sky130_fd_sc_hd__mux2_1_0_X
*647 sb_8__0_\.mux_left_track_9\.sky130_fd_sc_hd__mux2_1_1_X
*648 sb_8__0_\.mux_top_track_0\.out
*649 sb_8__0_\.mux_top_track_0\.sky130_fd_sc_hd__mux2_1_0_X
*650 sb_8__0_\.mux_top_track_0\.sky130_fd_sc_hd__mux2_1_1_X
*651 sb_8__0_\.mux_top_track_0\.sky130_fd_sc_hd__mux2_1_2_X
*652 sb_8__0_\.mux_top_track_0\.sky130_fd_sc_hd__mux2_1_3_X
*653 sb_8__0_\.mux_top_track_0\.sky130_fd_sc_hd__mux2_1_4_X
*654 sb_8__0_\.mux_top_track_10\.out
*655 sb_8__0_\.mux_top_track_10\.sky130_fd_sc_hd__mux2_1_0_X
*656 sb_8__0_\.mux_top_track_10\.sky130_fd_sc_hd__mux2_1_1_X
*657 sb_8__0_\.mux_top_track_10\.sky130_fd_sc_hd__mux2_1_2_X
*658 sb_8__0_\.mux_top_track_10\.sky130_fd_sc_hd__mux2_1_3_X
*659 sb_8__0_\.mux_top_track_10\.sky130_fd_sc_hd__mux2_1_4_X
*660 sb_8__0_\.mux_top_track_12\.out
*661 sb_8__0_\.mux_top_track_12\.sky130_fd_sc_hd__mux2_1_0_X
*662 sb_8__0_\.mux_top_track_12\.sky130_fd_sc_hd__mux2_1_1_X
*663 sb_8__0_\.mux_top_track_12\.sky130_fd_sc_hd__mux2_1_2_X
*664 sb_8__0_\.mux_top_track_14\.out
*665 sb_8__0_\.mux_top_track_14\.sky130_fd_sc_hd__mux2_1_0_X
*666 sb_8__0_\.mux_top_track_14\.sky130_fd_sc_hd__mux2_1_1_X
*667 sb_8__0_\.mux_top_track_14\.sky130_fd_sc_hd__mux2_1_2_X
*668 sb_8__0_\.mux_top_track_16\.out
*669 sb_8__0_\.mux_top_track_16\.sky130_fd_sc_hd__mux2_1_0_X
*670 sb_8__0_\.mux_top_track_16\.sky130_fd_sc_hd__mux2_1_1_X
*671 sb_8__0_\.mux_top_track_16\.sky130_fd_sc_hd__mux2_1_2_X
*672 sb_8__0_\.mux_top_track_18\.out
*673 sb_8__0_\.mux_top_track_18\.sky130_fd_sc_hd__mux2_1_0_X
*674 sb_8__0_\.mux_top_track_18\.sky130_fd_sc_hd__mux2_1_1_X
*675 sb_8__0_\.mux_top_track_18\.sky130_fd_sc_hd__mux2_1_2_X
*676 sb_8__0_\.mux_top_track_2\.out
*677 sb_8__0_\.mux_top_track_2\.sky130_fd_sc_hd__mux2_1_0_X
*678 sb_8__0_\.mux_top_track_2\.sky130_fd_sc_hd__mux2_1_1_X
*679 sb_8__0_\.mux_top_track_2\.sky130_fd_sc_hd__mux2_1_2_X
*680 sb_8__0_\.mux_top_track_2\.sky130_fd_sc_hd__mux2_1_3_X
*681 sb_8__0_\.mux_top_track_2\.sky130_fd_sc_hd__mux2_1_4_X
*682 sb_8__0_\.mux_top_track_20\.out
*683 sb_8__0_\.mux_top_track_20\.sky130_fd_sc_hd__mux2_1_0_X
*684 sb_8__0_\.mux_top_track_20\.sky130_fd_sc_hd__mux2_1_1_X
*685 sb_8__0_\.mux_top_track_22\.out
*686 sb_8__0_\.mux_top_track_22\.sky130_fd_sc_hd__mux2_1_0_X
*687 sb_8__0_\.mux_top_track_22\.sky130_fd_sc_hd__mux2_1_1_X
*688 sb_8__0_\.mux_top_track_24\.out
*689 sb_8__0_\.mux_top_track_24\.sky130_fd_sc_hd__mux2_1_0_X
*690 sb_8__0_\.mux_top_track_24\.sky130_fd_sc_hd__mux2_1_1_X
*691 sb_8__0_\.mux_top_track_26\.out
*692 sb_8__0_\.mux_top_track_26\.sky130_fd_sc_hd__mux2_1_0_X
*693 sb_8__0_\.mux_top_track_26\.sky130_fd_sc_hd__mux2_1_1_X
*694 sb_8__0_\.mux_top_track_28\.out
*695 sb_8__0_\.mux_top_track_28\.sky130_fd_sc_hd__mux2_1_0_X
*696 sb_8__0_\.mux_top_track_28\.sky130_fd_sc_hd__mux2_1_1_X
*697 sb_8__0_\.mux_top_track_30\.out
*698 sb_8__0_\.mux_top_track_30\.sky130_fd_sc_hd__mux2_1_0_X
*699 sb_8__0_\.mux_top_track_30\.sky130_fd_sc_hd__mux2_1_1_X
*700 sb_8__0_\.mux_top_track_32\.out
*701 sb_8__0_\.mux_top_track_32\.sky130_fd_sc_hd__mux2_1_0_X
*702 sb_8__0_\.mux_top_track_32\.sky130_fd_sc_hd__mux2_1_1_X
*703 sb_8__0_\.mux_top_track_34\.out
*704 sb_8__0_\.mux_top_track_34\.sky130_fd_sc_hd__mux2_1_0_X
*705 sb_8__0_\.mux_top_track_34\.sky130_fd_sc_hd__mux2_1_1_X
*706 sb_8__0_\.mux_top_track_36\.out
*707 sb_8__0_\.mux_top_track_36\.sky130_fd_sc_hd__mux2_1_0_X
*708 sb_8__0_\.mux_top_track_36\.sky130_fd_sc_hd__mux2_1_1_X
*709 sb_8__0_\.mux_top_track_38\.out
*710 sb_8__0_\.mux_top_track_38\.sky130_fd_sc_hd__mux2_1_0_X
*711 sb_8__0_\.mux_top_track_38\.sky130_fd_sc_hd__mux2_1_1_X
*712 sb_8__0_\.mux_top_track_4\.out
*713 sb_8__0_\.mux_top_track_4\.sky130_fd_sc_hd__mux2_1_0_X
*714 sb_8__0_\.mux_top_track_4\.sky130_fd_sc_hd__mux2_1_1_X
*715 sb_8__0_\.mux_top_track_4\.sky130_fd_sc_hd__mux2_1_2_X
*716 sb_8__0_\.mux_top_track_4\.sky130_fd_sc_hd__mux2_1_3_X
*717 sb_8__0_\.mux_top_track_4\.sky130_fd_sc_hd__mux2_1_4_X
*718 sb_8__0_\.mux_top_track_40\.out
*719 sb_8__0_\.mux_top_track_40\.sky130_fd_sc_hd__mux2_1_0_X
*720 sb_8__0_\.mux_top_track_40\.sky130_fd_sc_hd__mux2_1_1_X
*721 sb_8__0_\.mux_top_track_42\.out
*722 sb_8__0_\.mux_top_track_42\.sky130_fd_sc_hd__mux2_1_0_X
*723 sb_8__0_\.mux_top_track_42\.sky130_fd_sc_hd__mux2_1_1_X
*724 sb_8__0_\.mux_top_track_44\.out
*725 sb_8__0_\.mux_top_track_44\.sky130_fd_sc_hd__mux2_1_0_X
*726 sb_8__0_\.mux_top_track_44\.sky130_fd_sc_hd__mux2_1_1_X
*727 sb_8__0_\.mux_top_track_44\.sky130_fd_sc_hd__mux2_1_2_X
*728 sb_8__0_\.mux_top_track_46\.out
*729 sb_8__0_\.mux_top_track_46\.sky130_fd_sc_hd__mux2_1_0_X
*730 sb_8__0_\.mux_top_track_46\.sky130_fd_sc_hd__mux2_1_1_X
*731 sb_8__0_\.mux_top_track_46\.sky130_fd_sc_hd__mux2_1_2_X
*732 sb_8__0_\.mux_top_track_48\.out
*733 sb_8__0_\.mux_top_track_48\.sky130_fd_sc_hd__mux2_1_0_X
*734 sb_8__0_\.mux_top_track_48\.sky130_fd_sc_hd__mux2_1_1_X
*735 sb_8__0_\.mux_top_track_48\.sky130_fd_sc_hd__mux2_1_2_X
*736 sb_8__0_\.mux_top_track_50\.out
*737 sb_8__0_\.mux_top_track_50\.sky130_fd_sc_hd__mux2_1_0_X
*738 sb_8__0_\.mux_top_track_50\.sky130_fd_sc_hd__mux2_1_1_X
*739 sb_8__0_\.mux_top_track_50\.sky130_fd_sc_hd__mux2_1_2_X
*740 sb_8__0_\.mux_top_track_6\.out
*741 sb_8__0_\.mux_top_track_6\.sky130_fd_sc_hd__mux2_1_0_X
*742 sb_8__0_\.mux_top_track_6\.sky130_fd_sc_hd__mux2_1_1_X
*743 sb_8__0_\.mux_top_track_6\.sky130_fd_sc_hd__mux2_1_2_X
*744 sb_8__0_\.mux_top_track_6\.sky130_fd_sc_hd__mux2_1_3_X
*745 sb_8__0_\.mux_top_track_6\.sky130_fd_sc_hd__mux2_1_4_X
*746 sb_8__0_\.mux_top_track_8\.out
*747 sb_8__0_\.mux_top_track_8\.sky130_fd_sc_hd__mux2_1_0_X
*748 sb_8__0_\.mux_top_track_8\.sky130_fd_sc_hd__mux2_1_1_X
*749 sb_8__0_\.mux_top_track_8\.sky130_fd_sc_hd__mux2_1_2_X
*750 sb_8__0_\.mux_top_track_8\.sky130_fd_sc_hd__mux2_1_3_X
*751 sb_8__0_\.mux_top_track_8\.sky130_fd_sc_hd__mux2_1_4_X
*752 ANTENNA_1
*753 ANTENNA_10
*754 ANTENNA_11
*755 ANTENNA_12
*756 ANTENNA_13
*757 ANTENNA_14
*758 ANTENNA_15
*759 ANTENNA_16
*760 ANTENNA_17
*761 ANTENNA_18
*762 ANTENNA_19
*763 ANTENNA_2
*764 ANTENNA_20
*765 ANTENNA_21
*766 ANTENNA_22
*767 ANTENNA_23
*768 ANTENNA_24
*769 ANTENNA_25
*770 ANTENNA_26
*771 ANTENNA_27
*772 ANTENNA_3
*773 ANTENNA_4
*774 ANTENNA_5
*775 ANTENNA_6
*776 ANTENNA_7
*777 ANTENNA_8
*778 ANTENNA_9
*779 ANTENNA__096__A
*780 ANTENNA__097__A
*781 ANTENNA__098__A
*782 ANTENNA__099__A
*783 ANTENNA__101__A
*784 ANTENNA__104__A
*785 ANTENNA__105__A
*786 ANTENNA__106__A
*787 ANTENNA__107__A
*788 ANTENNA__109__A
*789 ANTENNA__112__A
*790 ANTENNA__113__A
*791 ANTENNA__114__A
*792 ANTENNA__115__A
*793 ANTENNA__116__A
*794 ANTENNA__118__A
*795 ANTENNA__119__A
*796 ANTENNA__121__A
*797 ANTENNA__123__A
*798 ANTENNA__124__A
*799 ANTENNA__125__A
*800 ANTENNA__127__A
*801 ANTENNA__129__A
*802 ANTENNA__131__A
*803 ANTENNA__132__A
*804 ANTENNA__133__A
*805 ANTENNA__141__A
*806 ANTENNA__142__A
*807 ANTENNA__143__A
*808 ANTENNA__144__A
*809 ANTENNA__145__A
*810 ANTENNA__146__A
*811 ANTENNA__147__A
*812 ANTENNA__148__A
*813 ANTENNA__149__A
*814 ANTENNA__155__A
*815 ANTENNA__156__A
*816 ANTENNA_cbx_8__0_\.cbx_8__0_\.mem_top_ipin_0\.sky130_fd_sc_hd__dfrtp_1_0__RESET_B
*817 ANTENNA_cbx_8__0_\.cbx_8__0_\.mem_top_ipin_0\.sky130_fd_sc_hd__dfrtp_1_1__RESET_B
*818 ANTENNA_cbx_8__0_\.cbx_8__0_\.mem_top_ipin_0\.sky130_fd_sc_hd__dfrtp_1_2__RESET_B
*819 ANTENNA_cbx_8__0_\.cbx_8__0_\.mem_top_ipin_0\.sky130_fd_sc_hd__dfrtp_1_3__RESET_B
*820 ANTENNA_cbx_8__0_\.cbx_8__0_\.mem_top_ipin_1\.sky130_fd_sc_hd__dfrtp_1_0__RESET_B
*821 ANTENNA_cbx_8__0_\.cbx_8__0_\.mem_top_ipin_1\.sky130_fd_sc_hd__dfrtp_1_1__D
*822 ANTENNA_cbx_8__0_\.cbx_8__0_\.mem_top_ipin_1\.sky130_fd_sc_hd__dfrtp_1_1__RESET_B
*823 ANTENNA_cbx_8__0_\.cbx_8__0_\.mem_top_ipin_1\.sky130_fd_sc_hd__dfrtp_1_2__RESET_B
*824 ANTENNA_cbx_8__0_\.cbx_8__0_\.mem_top_ipin_1\.sky130_fd_sc_hd__dfrtp_1_3__RESET_B
*825 ANTENNA_cbx_8__0_\.cbx_8__0_\.mem_top_ipin_2\.sky130_fd_sc_hd__dfrtp_1_0__RESET_B
*826 ANTENNA_cbx_8__0_\.cbx_8__0_\.mem_top_ipin_2\.sky130_fd_sc_hd__dfrtp_1_1__RESET_B
*827 ANTENNA_cbx_8__0_\.cbx_8__0_\.mem_top_ipin_2\.sky130_fd_sc_hd__dfrtp_1_2__RESET_B
*828 ANTENNA_cbx_8__0_\.cbx_8__0_\.mem_top_ipin_2\.sky130_fd_sc_hd__dfrtp_1_3__RESET_B
*829 ANTENNA_cbx_8__0_\.cbx_8__0_\.mem_top_ipin_3\.sky130_fd_sc_hd__dfrtp_1_0__RESET_B
*830 ANTENNA_cbx_8__0_\.cbx_8__0_\.mem_top_ipin_3\.sky130_fd_sc_hd__dfrtp_1_1__RESET_B
*831 ANTENNA_cbx_8__0_\.cbx_8__0_\.mem_top_ipin_3\.sky130_fd_sc_hd__dfrtp_1_2__RESET_B
*832 ANTENNA_cbx_8__0_\.cbx_8__0_\.mem_top_ipin_3\.sky130_fd_sc_hd__dfrtp_1_3__RESET_B
*833 ANTENNA_cbx_8__0_\.cbx_8__0_\.mux_top_ipin_0\.mux_l1_in_0__A0
*834 ANTENNA_cbx_8__0_\.cbx_8__0_\.mux_top_ipin_0\.mux_l1_in_0__A1
*835 ANTENNA_cbx_8__0_\.cbx_8__0_\.mux_top_ipin_0\.mux_l1_in_2__A0
*836 ANTENNA_cbx_8__0_\.cbx_8__0_\.mux_top_ipin_0\.mux_l1_in_2__A1
*837 ANTENNA_cbx_8__0_\.cbx_8__0_\.mux_top_ipin_0\.mux_l1_in_3__A0
*838 ANTENNA_cbx_8__0_\.cbx_8__0_\.mux_top_ipin_0\.mux_l1_in_3__A1
*839 ANTENNA_cbx_8__0_\.cbx_8__0_\.mux_top_ipin_0\.mux_l1_in_4__A0
*840 ANTENNA_cbx_8__0_\.cbx_8__0_\.mux_top_ipin_0\.mux_l1_in_4__A1
*841 ANTENNA_cbx_8__0_\.cbx_8__0_\.mux_top_ipin_0\.mux_l2_in_3__A1
*842 ANTENNA_cbx_8__0_\.cbx_8__0_\.mux_top_ipin_1\.mux_l1_in_0__A0
*843 ANTENNA_cbx_8__0_\.cbx_8__0_\.mux_top_ipin_1\.mux_l1_in_0__S