*SPEF "ieee 1481-1999"
*DESIGN "bottom_tile"
*DATE "11:11:11 Fri 11 11, 1111"
*VENDOR "OpenRCX"
*PROGRAM "Parallel Extraction"
*VERSION "1.0"
*DESIGN_FLOW "NAME_SCOPE LOCAL" "PIN_CAP NONE"
*DIVIDER /
*DELIMITER :
*BUS_DELIMITER []
*T_UNIT 1 NS
*C_UNIT 1 PF
*R_UNIT 1 OHM
*L_UNIT 1 HENRY

*NAME_MAP
*3 ccff_head
*4 ccff_head_1
*5 ccff_tail
*6 ccff_tail_0
*7 chanx_left_in[0]
*8 chanx_left_in[10]
*9 chanx_left_in[11]
*10 chanx_left_in[12]
*11 chanx_left_in[13]
*12 chanx_left_in[14]
*13 chanx_left_in[15]
*14 chanx_left_in[16]
*15 chanx_left_in[17]
*16 chanx_left_in[18]
*17 chanx_left_in[19]
*18 chanx_left_in[1]
*19 chanx_left_in[20]
*20 chanx_left_in[21]
*21 chanx_left_in[22]
*22 chanx_left_in[23]
*23 chanx_left_in[24]
*24 chanx_left_in[25]
*25 chanx_left_in[26]
*26 chanx_left_in[27]
*27 chanx_left_in[28]
*28 chanx_left_in[29]
*29 chanx_left_in[2]
*30 chanx_left_in[3]
*31 chanx_left_in[4]
*32 chanx_left_in[5]
*33 chanx_left_in[6]
*34 chanx_left_in[7]
*35 chanx_left_in[8]
*36 chanx_left_in[9]
*37 chanx_left_out[0]
*38 chanx_left_out[10]
*39 chanx_left_out[11]
*40 chanx_left_out[12]
*41 chanx_left_out[13]
*42 chanx_left_out[14]
*43 chanx_left_out[15]
*44 chanx_left_out[16]
*45 chanx_left_out[17]
*46 chanx_left_out[18]
*47 chanx_left_out[19]
*48 chanx_left_out[1]
*49 chanx_left_out[20]
*50 chanx_left_out[21]
*51 chanx_left_out[22]
*52 chanx_left_out[23]
*53 chanx_left_out[24]
*54 chanx_left_out[25]
*55 chanx_left_out[26]
*56 chanx_left_out[27]
*57 chanx_left_out[28]
*58 chanx_left_out[29]
*59 chanx_left_out[2]
*60 chanx_left_out[3]
*61 chanx_left_out[4]
*62 chanx_left_out[5]
*63 chanx_left_out[6]
*64 chanx_left_out[7]
*65 chanx_left_out[8]
*66 chanx_left_out[9]
*67 chanx_right_in_0[0]
*68 chanx_right_in_0[10]
*69 chanx_right_in_0[11]
*70 chanx_right_in_0[12]
*71 chanx_right_in_0[13]
*72 chanx_right_in_0[14]
*73 chanx_right_in_0[15]
*74 chanx_right_in_0[16]
*75 chanx_right_in_0[17]
*76 chanx_right_in_0[18]
*77 chanx_right_in_0[19]
*78 chanx_right_in_0[1]
*79 chanx_right_in_0[20]
*80 chanx_right_in_0[21]
*81 chanx_right_in_0[22]
*82 chanx_right_in_0[23]
*83 chanx_right_in_0[24]
*84 chanx_right_in_0[25]
*85 chanx_right_in_0[26]
*86 chanx_right_in_0[27]
*87 chanx_right_in_0[28]
*88 chanx_right_in_0[29]
*89 chanx_right_in_0[2]
*90 chanx_right_in_0[3]
*91 chanx_right_in_0[4]
*92 chanx_right_in_0[5]
*93 chanx_right_in_0[6]
*94 chanx_right_in_0[7]
*95 chanx_right_in_0[8]
*96 chanx_right_in_0[9]
*97 chanx_right_out_0[0]
*98 chanx_right_out_0[10]
*99 chanx_right_out_0[11]
*100 chanx_right_out_0[12]
*101 chanx_right_out_0[13]
*102 chanx_right_out_0[14]
*103 chanx_right_out_0[15]
*104 chanx_right_out_0[16]
*105 chanx_right_out_0[17]
*106 chanx_right_out_0[18]
*107 chanx_right_out_0[19]
*108 chanx_right_out_0[1]
*109 chanx_right_out_0[20]
*110 chanx_right_out_0[21]
*111 chanx_right_out_0[22]
*112 chanx_right_out_0[23]
*113 chanx_right_out_0[24]
*114 chanx_right_out_0[25]
*115 chanx_right_out_0[26]
*116 chanx_right_out_0[27]
*117 chanx_right_out_0[28]
*118 chanx_right_out_0[29]
*119 chanx_right_out_0[2]
*120 chanx_right_out_0[3]
*121 chanx_right_out_0[4]
*122 chanx_right_out_0[5]
*123 chanx_right_out_0[6]
*124 chanx_right_out_0[7]
*125 chanx_right_out_0[8]
*126 chanx_right_out_0[9]
*127 chany_top_in[0]
*128 chany_top_in[10]
*129 chany_top_in[11]
*130 chany_top_in[12]
*131 chany_top_in[13]
*132 chany_top_in[14]
*133 chany_top_in[15]
*134 chany_top_in[16]
*135 chany_top_in[17]
*136 chany_top_in[18]
*137 chany_top_in[19]
*138 chany_top_in[1]
*139 chany_top_in[20]
*140 chany_top_in[21]
*141 chany_top_in[22]
*142 chany_top_in[23]
*143 chany_top_in[24]
*144 chany_top_in[25]
*145 chany_top_in[26]
*146 chany_top_in[27]
*147 chany_top_in[28]
*148 chany_top_in[29]
*149 chany_top_in[2]
*150 chany_top_in[3]
*151 chany_top_in[4]
*152 chany_top_in[5]
*153 chany_top_in[6]
*154 chany_top_in[7]
*155 chany_top_in[8]
*156 chany_top_in[9]
*157 chany_top_out[0]
*158 chany_top_out[10]
*159 chany_top_out[11]
*160 chany_top_out[12]
*161 chany_top_out[13]
*162 chany_top_out[14]
*163 chany_top_out[15]
*164 chany_top_out[16]
*165 chany_top_out[17]
*166 chany_top_out[18]
*167 chany_top_out[19]
*168 chany_top_out[1]
*169 chany_top_out[20]
*170 chany_top_out[21]
*171 chany_top_out[22]
*172 chany_top_out[23]
*173 chany_top_out[24]
*174 chany_top_out[25]
*175 chany_top_out[26]
*176 chany_top_out[27]
*177 chany_top_out[28]
*178 chany_top_out[29]
*179 chany_top_out[2]
*180 chany_top_out[3]
*181 chany_top_out[4]
*182 chany_top_out[5]
*183 chany_top_out[6]
*184 chany_top_out[7]
*185 chany_top_out[8]
*186 chany_top_out[9]
*187 gfpga_pad_io_soc_dir[0]
*188 gfpga_pad_io_soc_dir[1]
*189 gfpga_pad_io_soc_dir[2]
*190 gfpga_pad_io_soc_dir[3]
*191 gfpga_pad_io_soc_in[0]
*192 gfpga_pad_io_soc_in[1]
*193 gfpga_pad_io_soc_in[2]
*194 gfpga_pad_io_soc_in[3]
*195 gfpga_pad_io_soc_out[0]
*196 gfpga_pad_io_soc_out[1]
*197 gfpga_pad_io_soc_out[2]
*198 gfpga_pad_io_soc_out[3]
*199 isol_n
*200 prog_clk
*201 prog_reset
*202 reset
*203 right_bottom_grid_top_width_0_height_0_subtile_0__pin_inpad_0_
*204 right_bottom_grid_top_width_0_height_0_subtile_1__pin_inpad_0_
*205 right_bottom_grid_top_width_0_height_0_subtile_2__pin_inpad_0_
*206 right_bottom_grid_top_width_0_height_0_subtile_3__pin_inpad_0_
*207 test_enable
*208 top_left_grid_right_width_0_height_0_subtile_0__pin_O_10_
*209 top_left_grid_right_width_0_height_0_subtile_0__pin_O_11_
*210 top_left_grid_right_width_0_height_0_subtile_0__pin_O_12_
*211 top_left_grid_right_width_0_height_0_subtile_0__pin_O_13_
*212 top_left_grid_right_width_0_height_0_subtile_0__pin_O_14_
*213 top_left_grid_right_width_0_height_0_subtile_0__pin_O_15_
*214 top_left_grid_right_width_0_height_0_subtile_0__pin_O_8_
*215 top_left_grid_right_width_0_height_0_subtile_0__pin_O_9_
*216 top_width_0_height_0_subtile_0__pin_inpad_0_
*217 top_width_0_height_0_subtile_1__pin_inpad_0_
*218 top_width_0_height_0_subtile_2__pin_inpad_0_
*219 top_width_0_height_0_subtile_3__pin_inpad_0_
*220 cbx_1__0_\.bottom_grid_top_width_0_height_0_subtile_0__pin_outpad_0_
*221 cbx_1__0_\.bottom_grid_top_width_0_height_0_subtile_1__pin_outpad_0_
*222 cbx_1__0_\.bottom_grid_top_width_0_height_0_subtile_2__pin_outpad_0_
*223 cbx_1__0_\.bottom_grid_top_width_0_height_0_subtile_3__pin_outpad_0_
*224 cbx_1__0_\.cbx_8__0_\.ccff_head
*225 cbx_1__0_\.cbx_8__0_\.mem_top_ipin_0\.ccff_tail
*226 cbx_1__0_\.cbx_8__0_\.mem_top_ipin_0\.mem_out\[0\]
*227 cbx_1__0_\.cbx_8__0_\.mem_top_ipin_0\.mem_out\[1\]
*228 cbx_1__0_\.cbx_8__0_\.mem_top_ipin_0\.mem_out\[2\]
*229 cbx_1__0_\.cbx_8__0_\.mem_top_ipin_1\.ccff_tail
*230 cbx_1__0_\.cbx_8__0_\.mem_top_ipin_1\.mem_out\[0\]
*231 cbx_1__0_\.cbx_8__0_\.mem_top_ipin_1\.mem_out\[1\]
*232 cbx_1__0_\.cbx_8__0_\.mem_top_ipin_1\.mem_out\[2\]
*233 cbx_1__0_\.cbx_8__0_\.mem_top_ipin_2\.ccff_tail
*234 cbx_1__0_\.cbx_8__0_\.mem_top_ipin_2\.mem_out\[0\]
*235 cbx_1__0_\.cbx_8__0_\.mem_top_ipin_2\.mem_out\[1\]
*236 cbx_1__0_\.cbx_8__0_\.mem_top_ipin_2\.mem_out\[2\]
*237 cbx_1__0_\.cbx_8__0_\.mem_top_ipin_3\.mem_out\[0\]
*238 cbx_1__0_\.cbx_8__0_\.mem_top_ipin_3\.mem_out\[1\]
*239 cbx_1__0_\.cbx_8__0_\.mem_top_ipin_3\.mem_out\[2\]
*240 cbx_1__0_\.cbx_8__0_\.mux_top_ipin_0\.sky130_fd_sc_hd__mux2_1_0_X
*241 cbx_1__0_\.cbx_8__0_\.mux_top_ipin_0\.sky130_fd_sc_hd__mux2_1_10_X
*242 cbx_1__0_\.cbx_8__0_\.mux_top_ipin_0\.sky130_fd_sc_hd__mux2_1_11_X
*243 cbx_1__0_\.cbx_8__0_\.mux_top_ipin_0\.sky130_fd_sc_hd__mux2_1_1_X
*244 cbx_1__0_\.cbx_8__0_\.mux_top_ipin_0\.sky130_fd_sc_hd__mux2_1_2_X
*245 cbx_1__0_\.cbx_8__0_\.mux_top_ipin_0\.sky130_fd_sc_hd__mux2_1_3_X
*246 cbx_1__0_\.cbx_8__0_\.mux_top_ipin_0\.sky130_fd_sc_hd__mux2_1_4_X
*247 cbx_1__0_\.cbx_8__0_\.mux_top_ipin_0\.sky130_fd_sc_hd__mux2_1_5_X
*248 cbx_1__0_\.cbx_8__0_\.mux_top_ipin_0\.sky130_fd_sc_hd__mux2_1_6_X
*249 cbx_1__0_\.cbx_8__0_\.mux_top_ipin_0\.sky130_fd_sc_hd__mux2_1_7_X
*250 cbx_1__0_\.cbx_8__0_\.mux_top_ipin_0\.sky130_fd_sc_hd__mux2_1_8_X
*251 cbx_1__0_\.cbx_8__0_\.mux_top_ipin_0\.sky130_fd_sc_hd__mux2_1_9_X
*252 cbx_1__0_\.cbx_8__0_\.mux_top_ipin_1\.sky130_fd_sc_hd__mux2_1_0_X
*253 cbx_1__0_\.cbx_8__0_\.mux_top_ipin_1\.sky130_fd_sc_hd__mux2_1_10_X
*254 cbx_1__0_\.cbx_8__0_\.mux_top_ipin_1\.sky130_fd_sc_hd__mux2_1_11_X
*255 cbx_1__0_\.cbx_8__0_\.mux_top_ipin_1\.sky130_fd_sc_hd__mux2_1_1_X
*256 cbx_1__0_\.cbx_8__0_\.mux_top_ipin_1\.sky130_fd_sc_hd__mux2_1_2_X
*257 cbx_1__0_\.cbx_8__0_\.mux_top_ipin_1\.sky130_fd_sc_hd__mux2_1_3_X
*258 cbx_1__0_\.cbx_8__0_\.mux_top_ipin_1\.sky130_fd_sc_hd__mux2_1_4_X
*259 cbx_1__0_\.cbx_8__0_\.mux_top_ipin_1\.sky130_fd_sc_hd__mux2_1_5_X
*260 cbx_1__0_\.cbx_8__0_\.mux_top_ipin_1\.sky130_fd_sc_hd__mux2_1_6_X
*261 cbx_1__0_\.cbx_8__0_\.mux_top_ipin_1\.sky130_fd_sc_hd__mux2_1_7_X
*262 cbx_1__0_\.cbx_8__0_\.mux_top_ipin_1\.sky130_fd_sc_hd__mux2_1_8_X
*263 cbx_1__0_\.cbx_8__0_\.mux_top_ipin_1\.sky130_fd_sc_hd__mux2_1_9_X
*264 cbx_1__0_\.cbx_8__0_\.mux_top_ipin_2\.sky130_fd_sc_hd__mux2_1_0_X
*265 cbx_1__0_\.cbx_8__0_\.mux_top_ipin_2\.sky130_fd_sc_hd__mux2_1_10_X
*266 cbx_1__0_\.cbx_8__0_\.mux_top_ipin_2\.sky130_fd_sc_hd__mux2_1_11_X
*267 cbx_1__0_\.cbx_8__0_\.mux_top_ipin_2\.sky130_fd_sc_hd__mux2_1_1_X
*268 cbx_1__0_\.cbx_8__0_\.mux_top_ipin_2\.sky130_fd_sc_hd__mux2_1_2_X
*269 cbx_1__0_\.cbx_8__0_\.mux_top_ipin_2\.sky130_fd_sc_hd__mux2_1_3_X
*270 cbx_1__0_\.cbx_8__0_\.mux_top_ipin_2\.sky130_fd_sc_hd__mux2_1_4_X
*271 cbx_1__0_\.cbx_8__0_\.mux_top_ipin_2\.sky130_fd_sc_hd__mux2_1_5_X
*272 cbx_1__0_\.cbx_8__0_\.mux_top_ipin_2\.sky130_fd_sc_hd__mux2_1_6_X
*273 cbx_1__0_\.cbx_8__0_\.mux_top_ipin_2\.sky130_fd_sc_hd__mux2_1_7_X
*274 cbx_1__0_\.cbx_8__0_\.mux_top_ipin_2\.sky130_fd_sc_hd__mux2_1_8_X
*275 cbx_1__0_\.cbx_8__0_\.mux_top_ipin_2\.sky130_fd_sc_hd__mux2_1_9_X
*276 cbx_1__0_\.cbx_8__0_\.mux_top_ipin_3\.sky130_fd_sc_hd__mux2_1_0_X
*277 cbx_1__0_\.cbx_8__0_\.mux_top_ipin_3\.sky130_fd_sc_hd__mux2_1_10_X
*278 cbx_1__0_\.cbx_8__0_\.mux_top_ipin_3\.sky130_fd_sc_hd__mux2_1_11_X
*279 cbx_1__0_\.cbx_8__0_\.mux_top_ipin_3\.sky130_fd_sc_hd__mux2_1_1_X
*280 cbx_1__0_\.cbx_8__0_\.mux_top_ipin_3\.sky130_fd_sc_hd__mux2_1_2_X
*281 cbx_1__0_\.cbx_8__0_\.mux_top_ipin_3\.sky130_fd_sc_hd__mux2_1_3_X
*282 cbx_1__0_\.cbx_8__0_\.mux_top_ipin_3\.sky130_fd_sc_hd__mux2_1_4_X
*283 cbx_1__0_\.cbx_8__0_\.mux_top_ipin_3\.sky130_fd_sc_hd__mux2_1_5_X
*284 cbx_1__0_\.cbx_8__0_\.mux_top_ipin_3\.sky130_fd_sc_hd__mux2_1_6_X
*285 cbx_1__0_\.cbx_8__0_\.mux_top_ipin_3\.sky130_fd_sc_hd__mux2_1_7_X
*286 cbx_1__0_\.cbx_8__0_\.mux_top_ipin_3\.sky130_fd_sc_hd__mux2_1_8_X
*287 cbx_1__0_\.cbx_8__0_\.mux_top_ipin_3\.sky130_fd_sc_hd__mux2_1_9_X
*288 cbx_1__0_\.grid_io_bottom_bottom_8__0_\.logical_tile_io_mode_io__0\.ccff_tail
*289 cbx_1__0_\.grid_io_bottom_bottom_8__0_\.logical_tile_io_mode_io__0\.gfpga_pad_io_soc_dir
*290 cbx_1__0_\.grid_io_bottom_bottom_8__0_\.logical_tile_io_mode_io__0\.logical_tile_io_mode_physical__iopad_0\.io_0_\.SOC_DIR_N
*291 cbx_1__0_\.grid_io_bottom_bottom_8__0_\.logical_tile_io_mode_io__1\.ccff_tail
*292 cbx_1__0_\.grid_io_bottom_bottom_8__0_\.logical_tile_io_mode_io__1\.gfpga_pad_io_soc_dir
*293 cbx_1__0_\.grid_io_bottom_bottom_8__0_\.logical_tile_io_mode_io__1\.logical_tile_io_mode_physical__iopad_0\.io_0_\.SOC_DIR_N
*294 cbx_1__0_\.grid_io_bottom_bottom_8__0_\.logical_tile_io_mode_io__2\.ccff_tail
*295 cbx_1__0_\.grid_io_bottom_bottom_8__0_\.logical_tile_io_mode_io__2\.gfpga_pad_io_soc_dir
*296 cbx_1__0_\.grid_io_bottom_bottom_8__0_\.logical_tile_io_mode_io__2\.logical_tile_io_mode_physical__iopad_0\.io_0_\.SOC_DIR_N
*297 cbx_1__0_\.grid_io_bottom_bottom_8__0_\.logical_tile_io_mode_io__3\.gfpga_pad_io_soc_dir
*298 cbx_1__0_\.grid_io_bottom_bottom_8__0_\.logical_tile_io_mode_io__3\.logical_tile_io_mode_physical__iopad_0\.io_0_\.SOC_DIR_N
*299 clknet_0_prog_clk
*300 clknet_4_0_0_prog_clk
*301 clknet_4_10_0_prog_clk
*302 clknet_4_11_0_prog_clk
*303 clknet_4_12_0_prog_clk
*304 clknet_4_13_0_prog_clk
*305 clknet_4_14_0_prog_clk
*306 clknet_4_15_0_prog_clk
*307 clknet_4_1_0_prog_clk
*308 clknet_4_2_0_prog_clk
*309 clknet_4_3_0_prog_clk
*310 clknet_4_4_0_prog_clk
*311 clknet_4_5_0_prog_clk
*312 clknet_4_6_0_prog_clk
*313 clknet_4_7_0_prog_clk
*314 clknet_4_8_0_prog_clk
*315 clknet_4_9_0_prog_clk
*316 net1
*317 net10
*318 net100
*319 net101
*320 net102
*321 net103
*322 net104
*323 net105
*324 net106
*325 net107
*326 net108
*327 net109
*328 net11
*329 net110
*330 net111
*331 net112
*332 net113
*333 net114
*334 net115
*335 net116
*336 net117
*337 net118
*338 net119
*339 net12
*340 net120
*341 net121
*342 net122
*343 net123
*344 net124
*345 net125
*346 net126
*347 net127
*348 net128
*349 net129
*350 net13
*351 net130
*352 net131
*353 net132
*354 net133
*355 net134
*356 net135
*357 net136
*358 net137
*359 net138
*360 net139
*361 net14
*362 net140
*363 net141
*364 net142
*365 net143
*366 net144
*367 net145
*368 net146
*369 net147
*370 net148
*371 net149
*372 net15
*373 net150
*374 net151
*375 net152
*376 net153
*377 net154
*378 net155
*379 net156
*380 net157
*381 net158
*382 net159
*383 net16
*384 net160
*385 net161
*386 net162
*387 net163
*388 net164
*389 net165
*390 net166
*391 net167
*392 net168
*393 net169
*394 net17
*395 net170
*396 net171
*397 net172
*398 net173
*399 net174
*400 net175
*401 net176
*402 net177
*403 net178
*404 net179
*405 net18
*406 net180
*407 net181
*408 net182
*409 net183
*410 net184
*411 net185
*412 net186
*413 net187
*414 net188
*415 net189
*416 net19
*417 net190
*418 net191
*419 net192
*420 net193
*421 net194
*422 net195
*423 net196
*424 net197
*425 net198
*426 net199
*427 net2
*428 net20
*429 net200
*430 net201
*431 net202
*432 net203
*433 net204
*434 net205
*435 net206
*436 net207
*437 net208
*438 net209
*439 net21
*440 net210
*441 net211
*442 net212
*443 net213
*444 net214
*445 net215
*446 net216
*447 net217
*448 net218
*449 net219
*450 net22
*451 net220
*452 net221
*453 net222
*454 net223
*455 net224
*456 net225
*457 net226
*458 net227
*459 net228
*460 net229
*461 net23
*462 net230
*463 net231
*464 net232
*465 net233
*466 net234
*467 net235
*468 net236
*469 net237
*470 net238
*471 net239
*472 net24
*473 net240
*474 net241
*475 net242
*476 net243
*477 net244
*478 net245
*479 net246
*480 net247
*481 net248
*482 net249
*483 net25
*484 net250
*485 net251
*486 net252
*487 net253
*488 net254
*489 net255
*490 net256
*491 net257
*492 net258
*493 net259
*494 net26
*495 net260
*496 net261
*497 net262
*498 net263
*499 net264
*500 net265
*501 net266
*502 net267
*503 net268
*504 net269
*505 net27
*506 net270
*507 net271
*508 net272
*509 net273
*510 net274
*511 net275
*512 net276
*513 net277
*514 net278
*515 net279
*516 net28
*517 net280
*518 net281
*519 net282
*520 net283
*521 net284
*522 net285
*523 net286
*524 net287
*525 net288
*526 net289
*527 net29
*528 net290
*529 net291
*530 net292
*531 net293
*532 net294
*533 net295
*534 net296
*535 net297
*536 net298
*537 net299
*538 net3
*539 net30
*540 net300
*541 net301
*542 net302
*543 net303
*544 net304
*545 net305
*546 net306
*547 net307
*548 net308
*549 net309
*550 net31
*551 net310
*552 net311
*553 net312
*554 net313
*555 net314
*556 net315
*557 net316
*558 net317
*559 net318
*560 net319
*561 net32
*562 net320
*563 net321
*564 net322
*565 net323
*566 net324
*567 net325
*568 net326
*569 net327
*570 net328
*571 net329
*572 net33
*573 net330
*574 net331
*575 net332
*576 net333
*577 net334
*578 net335
*579 net336
*580 net337
*581 net338
*582 net339
*583 net34
*584 net340
*585 net341
*586 net342
*587 net343
*588 net344
*589 net345
*590 net346
*591 net347
*592 net348
*593 net349
*594 net35
*595 net350
*596 net351
*597 net352
*598 net353
*599 net354
*600 net355
*601 net356
*602 net357
*603 net358
*604 net359
*605 net36
*606 net360
*607 net361
*608 net362
*609 net363
*610 net364
*611 net365
*612 net366
*613 net367
*614 net368
*615 net369
*616 net37
*617 net370
*618 net371
*619 net372
*620 net373
*621 net374
*622 net375
*623 net376
*624 net377
*625 net378
*626 net379
*627 net38
*628 net380
*629 net381
*630 net382
*631 net383
*632 net384
*633 net385
*634 net386
*635 net387
*636 net388
*637 net389
*638 net39
*639 net390
*640 net391
*641 net392
*642 net393
*643 net394
*644 net395
*645 net396
*646 net397
*647 net398
*648 net399
*649 net4
*650 net40
*651 net400
*652 net401
*653 net402
*654 net403
*655 net404
*656 net405
*657 net406
*658 net407
*659 net408
*660 net409
*661 net41
*662 net410
*663 net411
*664 net412
*665 net413
*666 net414
*667 net415
*668 net416
*669 net417
*670 net418
*671 net419
*672 net42
*673 net420
*674 net421
*675 net422
*676 net423
*677 net424
*678 net425
*679 net426
*680 net427
*681 net428
*682 net429
*683 net43
*684 net430
*685 net431
*686 net432
*687 net433
*688 net434
*689 net435
*690 net436
*691 net437
*692 net438
*693 net439
*694 net44
*695 net440
*696 net441
*697 net442
*698 net443
*699 net444
*700 net445
*701 net446
*702 net447
*703 net448
*704 net449
*705 net45
*706 net450
*707 net451
*708 net452
*709 net453
*710 net454
*711 net455
*712 net456
*713 net457
*714 net458
*715 net459
*716 net46
*717 net460
*718 net461
*719 net462
*720 net463
*721 net464
*722 net465
*723 net466
*724 net467
*725 net468
*726 net469
*727 net47
*728 net470
*729 net471
*730 net472
*731 net473
*732 net474
*733 net475
*734 net476
*735 net477
*736 net478
*737 net479
*738 net48
*739 net480
*740 net481
*741 net482
*742 net483
*743 net484
*744 net485
*745 net486
*746 net487
*747 net488
*748 net489
*749 net49
*750 net490
*751 net491
*752 net492
*753 net493
*754 net494
*755 net495
*756 net496
*757 net497
*758 net498
*759 net499
*760 net5
*761 net50
*762 net500
*763 net501
*764 net502
*765 net503
*766 net504
*767 net505
*768 net506
*769 net507
*770 net508
*771 net509
*772 net51
*773 net510
*774 net511
*775 net512
*776 net513
*777 net514
*778 net515
*779 net516
*780 net517
*781 net518
*782 net519
*783 net52
*784 net520
*785 net521
*786 net522
*787 net523
*788 net524
*789 net525
*790 net526
*791 net527
*792 net528
*793 net529
*794 net53
*795 net530
*796 net531
*797 net532
*798 net533
*799 net534
*800 net535
*801 net536
*802 net537
*803 net538
*804 net539
*805 net54
*806 net540
*807 net541
*808 net542
*809 net543
*810 net544
*811 net545
*812 net546
*813 net547
*814 net548
*815 net549
*816 net55
*817 net550
*818 net551
*819 net552
*820 net553
*821 net554
*822 net555
*823 net556
*824 net557
*825 net558
*826 net559
*827 net56
*828 net560
*829 net561
*830 net562
*831 net563
*832 net564
*833 net565
*834 net566
*835 net567
*836 net568
*837 net569
*838 net57
*839 net570
*840 net571
*841 net572
*842 net573
*843 net574
*844 net575
*845 net576
*846 net577
*847 net578
*848 net579
*849 net58
*850 net580
*851 net581
*852 net582
*853 net583
*854 net584
*855 net585
*856 net586
*857 net587
*858 net588
*859 net589
*860 net59
*861 net590
*862 net591
*863 net592
*864 net593
*865 net594
*866 net595
*867 net596
*868 net597
*869 net598
*870 net599
*871 net6
*872 net60
*873 net600
*874 net601
*875 net602
*876 net603
*877 net604
*878 net605
*879 net606
*880 net607
*881 net608
*882 net609
*883 net61
*884 net610
*885 net611
*886 net612
*887 net613
*888 net614
*889 net615
*890 net616
*891 net617
*892 net618
*893 net619
*894 net62
*895 net620
*896 net621
*897 net622
*898 net623
*899 net624
*900 net625
*901 net626
*902 net627
*903 net628
*904 net629
*905 net63
*906 net630
*907 net631
*908 net632
*909 net633
*910 net634
*911 net635
*912 net636
*913 net637
*914 net638
*915 net639
*916 net64
*917 net640
*918 net641
*919 net642
*920 net643
*921 net644
*922 net645
*923 net646
*924 net647
*925 net648
*926 net649
*927 net65
*928 net650
*929 net651
*930 net652
*931 net653
*932 net654
*933 net655
*934 net656
*935 net657
*936 net66
*937 net67
*938 net68
*939 net69
*940 net7
*941 net70
*942 net71
*943 net72
*944 net73
*945 net74
*946 net75
*947 net76
*948 net77
*949 net78
*950 net79
*951 net8
*952 net80
*953 net81
*954 net82
*955 net83
*956 net84
*957 net85
*958 net86
*959 net87
*960 net88
*961 net89
*962 net9
*963 net90
*964 net91
*965 net92
*966 net93
*967 net94
*968 net95
*969 net96
*970 net97
*971 net98
*972 net99
*973 sb_1__0_\.mem_left_track_1\.ccff_head
*974 sb_1__0_\.mem_left_track_1\.ccff_tail
*975 sb_1__0_\.mem_left_track_1\.mem_out\[0\]
*976 sb_1__0_\.mem_left_track_1\.mem_out\[1\]
*977 sb_1__0_\.mem_left_track_11\.ccff_head
*978 sb_1__0_\.mem_left_track_11\.ccff_tail
*979 sb_1__0_\.mem_left_track_11\.mem_out\[0\]
*980 sb_1__0_\.mem_left_track_11\.mem_out\[1\]
*981 sb_1__0_\.mem_left_track_13\.ccff_tail
*982 sb_1__0_\.mem_left_track_13\.mem_out\[0\]
*983 sb_1__0_\.mem_left_track_13\.mem_out\[1\]
*984 sb_1__0_\.mem_left_track_21\.ccff_tail
*985 sb_1__0_\.mem_left_track_21\.mem_out\[0\]
*986 sb_1__0_\.mem_left_track_21\.mem_out\[1\]
*987 sb_1__0_\.mem_left_track_29\.ccff_tail
*988 sb_1__0_\.mem_left_track_29\.mem_out\[0\]
*989 sb_1__0_\.mem_left_track_29\.mem_out\[1\]
*990 sb_1__0_\.mem_left_track_3\.ccff_tail
*991 sb_1__0_\.mem_left_track_3\.mem_out\[0\]
*992 sb_1__0_\.mem_left_track_3\.mem_out\[1\]
*993 sb_1__0_\.mem_left_track_37\.ccff_tail
*994 sb_1__0_\.mem_left_track_37\.mem_out\[0\]
*995 sb_1__0_\.mem_left_track_37\.mem_out\[1\]
*996 sb_1__0_\.mem_left_track_45\.ccff_tail
*997 sb_1__0_\.mem_left_track_45\.mem_out\[0\]
*998 sb_1__0_\.mem_left_track_45\.mem_out\[1\]
*999 sb_1__0_\.mem_left_track_5\.ccff_tail
*1000 sb_1__0_\.mem_left_track_5\.mem_out\[0\]
*1001 sb_1__0_\.mem_left_track_5\.mem_out\[1\]
*1002 sb_1__0_\.mem_left_track_53\.mem_out\[0\]
*1003 sb_1__0_\.mem_left_track_53\.mem_out\[1\]
*1004 sb_1__0_\.mem_left_track_7\.mem_out\[0\]
*1005 sb_1__0_\.mem_left_track_7\.mem_out\[1\]
*1006 sb_1__0_\.mem_right_track_0\.ccff_head
*1007 sb_1__0_\.mem_right_track_0\.ccff_tail
*1008 sb_1__0_\.mem_right_track_0\.mem_out\[0\]
*1009 sb_1__0_\.mem_right_track_0\.mem_out\[1\]
*1010 sb_1__0_\.mem_right_track_10\.ccff_head
*1011 sb_1__0_\.mem_right_track_10\.ccff_tail
*1012 sb_1__0_\.mem_right_track_10\.mem_out\[0\]
*1013 sb_1__0_\.mem_right_track_10\.mem_out\[1\]
*1014 sb_1__0_\.mem_right_track_12\.ccff_tail
*1015 sb_1__0_\.mem_right_track_12\.mem_out\[0\]
*1016 sb_1__0_\.mem_right_track_12\.mem_out\[1\]
*1017 sb_1__0_\.mem_right_track_2\.ccff_tail
*1018 sb_1__0_\.mem_right_track_2\.mem_out\[0\]
*1019 sb_1__0_\.mem_right_track_2\.mem_out\[1\]
*1020 sb_1__0_\.mem_right_track_20\.ccff_tail
*1021 sb_1__0_\.mem_right_track_20\.mem_out\[0\]
*1022 sb_1__0_\.mem_right_track_20\.mem_out\[1\]
*1023 sb_1__0_\.mem_right_track_28\.ccff_tail
*1024 sb_1__0_\.mem_right_track_28\.mem_out\[0\]
*1025 sb_1__0_\.mem_right_track_28\.mem_out\[1\]
*1026 sb_1__0_\.mem_right_track_36\.ccff_tail
*1027 sb_1__0_\.mem_right_track_36\.mem_out\[0\]
*1028 sb_1__0_\.mem_right_track_36\.mem_out\[1\]
*1029 sb_1__0_\.mem_right_track_4\.ccff_tail
*1030 sb_1__0_\.mem_right_track_4\.mem_out\[0\]
*1031 sb_1__0_\.mem_right_track_4\.mem_out\[1\]
*1032 sb_1__0_\.mem_right_track_44\.ccff_tail
*1033 sb_1__0_\.mem_right_track_44\.mem_out\[0\]
*1034 sb_1__0_\.mem_right_track_52\.mem_out\[0\]
*1035 sb_1__0_\.mem_right_track_6\.mem_out\[0\]
*1036 sb_1__0_\.mem_right_track_6\.mem_out\[1\]
*1037 sb_1__0_\.mem_top_track_0\.ccff_tail
*1038 sb_1__0_\.mem_top_track_0\.mem_out\[0\]
*1039 sb_1__0_\.mem_top_track_0\.mem_out\[1\]
*1040 sb_1__0_\.mem_top_track_10\.ccff_head
*1041 sb_1__0_\.mem_top_track_10\.ccff_tail
*1042 sb_1__0_\.mem_top_track_10\.mem_out\[0\]
*1043 sb_1__0_\.mem_top_track_10\.mem_out\[1\]
*1044 sb_1__0_\.mem_top_track_12\.ccff_tail
*1045 sb_1__0_\.mem_top_track_12\.mem_out\[0\]
*1046 sb_1__0_\.mem_top_track_12\.mem_out\[1\]
*1047 sb_1__0_\.mem_top_track_14\.ccff_tail
*1048 sb_1__0_\.mem_top_track_14\.mem_out\[0\]
*1049 sb_1__0_\.mem_top_track_14\.mem_out\[1\]
*1050 sb_1__0_\.mem_top_track_16\.ccff_tail
*1051 sb_1__0_\.mem_top_track_16\.mem_out\[0\]
*1052 sb_1__0_\.mem_top_track_16\.mem_out\[1\]
*1053 sb_1__0_\.mem_top_track_18\.ccff_tail
*1054 sb_1__0_\.mem_top_track_18\.mem_out\[0\]
*1055 sb_1__0_\.mem_top_track_18\.mem_out\[1\]
*1056 sb_1__0_\.mem_top_track_2\.ccff_tail
*1057 sb_1__0_\.mem_top_track_2\.mem_out\[0\]
*1058 sb_1__0_\.mem_top_track_2\.mem_out\[1\]
*1059 sb_1__0_\.mem_top_track_20\.ccff_tail
*1060 sb_1__0_\.mem_top_track_20\.mem_out\[0\]
*1061 sb_1__0_\.mem_top_track_22\.ccff_tail
*1062 sb_1__0_\.mem_top_track_22\.mem_out\[0\]
*1063 sb_1__0_\.mem_top_track_24\.ccff_tail
*1064 sb_1__0_\.mem_top_track_24\.mem_out\[0\]
*1065 sb_1__0_\.mem_top_track_26\.ccff_tail
*1066 sb_1__0_\.mem_top_track_26\.mem_out\[0\]
*1067 sb_1__0_\.mem_top_track_28\.ccff_tail
*1068 sb_1__0_\.mem_top_track_28\.mem_out\[0\]
*1069 sb_1__0_\.mem_top_track_30\.ccff_tail
*1070 sb_1__0_\.mem_top_track_30\.mem_out\[0\]
*1071 sb_1__0_\.mem_top_track_32\.ccff_tail
*1072 sb_1__0_\.mem_top_track_32\.mem_out\[0\]
*1073 sb_1__0_\.mem_top_track_34\.ccff_tail
*1074 sb_1__0_\.mem_top_track_34\.mem_out\[0\]
*1075 sb_1__0_\.mem_top_track_36\.ccff_tail
*1076 sb_1__0_\.mem_top_track_36\.mem_out\[0\]
*1077 sb_1__0_\.mem_top_track_4\.ccff_tail
*1078 sb_1__0_\.mem_top_track_4\.mem_out\[0\]
*1079 sb_1__0_\.mem_top_track_4\.mem_out\[1\]
*1080 sb_1__0_\.mem_top_track_40\.ccff_tail
*1081 sb_1__0_\.mem_top_track_40\.mem_out\[0\]
*1082 sb_1__0_\.mem_top_track_42\.ccff_tail
*1083 sb_1__0_\.mem_top_track_42\.mem_out\[0\]
*1084 sb_1__0_\.mem_top_track_44\.ccff_tail
*1085 sb_1__0_\.mem_top_track_44\.mem_out\[0\]
*1086 sb_1__0_\.mem_top_track_46\.ccff_tail
*1087 sb_1__0_\.mem_top_track_46\.mem_out\[0\]
*1088 sb_1__0_\.mem_top_track_48\.ccff_tail
*1089 sb_1__0_\.mem_top_track_48\.mem_out\[0\]
*1090 sb_1__0_\.mem_top_track_50\.ccff_tail
*1091 sb_1__0_\.mem_top_track_50\.mem_out\[0\]
*1092 sb_1__0_\.mem_top_track_58\.mem_out\[0\]
*1093 sb_1__0_\.mem_top_track_6\.ccff_tail
*1094 sb_1__0_\.mem_top_track_6\.mem_out\[0\]
*1095 sb_1__0_\.mem_top_track_6\.mem_out\[1\]
*1096 sb_1__0_\.mem_top_track_8\.mem_out\[0\]
*1097 sb_1__0_\.mem_top_track_8\.mem_out\[1\]
*1098 sb_1__0_\.mux_left_track_1\.out
*1099 sb_1__0_\.mux_left_track_1\.sky130_fd_sc_hd__mux2_1_0_X
*1100 sb_1__0_\.mux_left_track_1\.sky130_fd_sc_hd__mux2_1_1_X
*1101 sb_1__0_\.mux_left_track_1\.sky130_fd_sc_hd__mux2_1_2_X
*1102 sb_1__0_\.mux_left_track_1\.sky130_fd_sc_hd__mux2_1_3_X
*1103 sb_1__0_\.mux_left_track_1\.sky130_fd_sc_hd__mux2_1_4_X
*1104 sb_1__0_\.mux_left_track_1\.sky130_fd_sc_hd__mux2_1_5_X
*1105 sb_1__0_\.mux_left_track_1\.sky130_fd_sc_hd__mux2_1_6_X
*1106 sb_1__0_\.mux_left_track_11\.out
*1107 sb_1__0_\.mux_left_track_11\.sky130_fd_sc_hd__mux2_1_0_X
*1108 sb_1__0_\.mux_left_track_11\.sky130_fd_sc_hd__mux2_1_1_X
*1109 sb_1__0_\.mux_left_track_11\.sky130_fd_sc_hd__mux2_1_2_X
*1110 sb_1__0_\.mux_left_track_11\.sky130_fd_sc_hd__mux2_1_3_X
*1111 sb_1__0_\.mux_left_track_11\.sky130_fd_sc_hd__mux2_1_4_X
*1112 sb_1__0_\.mux_left_track_11\.sky130_fd_sc_hd__mux2_1_5_X
*1113 sb_1__0_\.mux_left_track_11\.sky130_fd_sc_hd__mux2_1_6_X
*1114 sb_1__0_\.mux_left_track_13\.out
*1115 sb_1__0_\.mux_left_track_13\.sky130_fd_sc_hd__mux2_1_0_X
*1116 sb_1__0_\.mux_left_track_13\.sky130_fd_sc_hd__mux2_1_1_X
*1117 sb_1__0_\.mux_left_track_13\.sky130_fd_sc_hd__mux2_1_2_X
*1118 sb_1__0_\.mux_left_track_13\.sky130_fd_sc_hd__mux2_1_3_X
*1119 sb_1__0_\.mux_left_track_13\.sky130_fd_sc_hd__mux2_1_4_X
*1120 sb_1__0_\.mux_left_track_13\.sky130_fd_sc_hd__mux2_1_5_X
*1121 sb_1__0_\.mux_left_track_21\.out
*1122 sb_1__0_\.mux_left_track_21\.sky130_fd_sc_hd__mux2_1_0_X
*1123 sb_1__0_\.mux_left_track_21\.sky130_fd_sc_hd__mux2_1_1_X
*1124 sb_1__0_\.mux_left_track_21\.sky130_fd_sc_hd__mux2_1_2_X
*1125 sb_1__0_\.mux_left_track_21\.sky130_fd_sc_hd__mux2_1_3_X
*1126 sb_1__0_\.mux_left_track_21\.sky130_fd_sc_hd__mux2_1_4_X
*1127 sb_1__0_\.mux_left_track_21\.sky130_fd_sc_hd__mux2_1_5_X
*1128 sb_1__0_\.mux_left_track_29\.out
*1129 sb_1__0_\.mux_left_track_29\.sky130_fd_sc_hd__mux2_1_0_X
*1130 sb_1__0_\.mux_left_track_29\.sky130_fd_sc_hd__mux2_1_1_X
*1131 sb_1__0_\.mux_left_track_29\.sky130_fd_sc_hd__mux2_1_2_X
*1132 sb_1__0_\.mux_left_track_29\.sky130_fd_sc_hd__mux2_1_3_X
*1133 sb_1__0_\.mux_left_track_29\.sky130_fd_sc_hd__mux2_1_4_X
*1134 sb_1__0_\.mux_left_track_29\.sky130_fd_sc_hd__mux2_1_5_X
*1135 sb_1__0_\.mux_left_track_3\.out
*1136 sb_1__0_\.mux_left_track_3\.sky130_fd_sc_hd__mux2_1_0_X
*1137 sb_1__0_\.mux_left_track_3\.sky130_fd_sc_hd__mux2_1_1_X
*1138 sb_1__0_\.mux_left_track_3\.sky130_fd_sc_hd__mux2_1_2_X
*1139 sb_1__0_\.mux_left_track_3\.sky130_fd_sc_hd__mux2_1_3_X
*1140 sb_1__0_\.mux_left_track_3\.sky130_fd_sc_hd__mux2_1_4_X
*1141 sb_1__0_\.mux_left_track_37\.out
*1142 sb_1__0_\.mux_left_track_37\.sky130_fd_sc_hd__mux2_1_0_X
*1143 sb_1__0_\.mux_left_track_37\.sky130_fd_sc_hd__mux2_1_1_X
*1144 sb_1__0_\.mux_left_track_37\.sky130_fd_sc_hd__mux2_1_2_X
*1145 sb_1__0_\.mux_left_track_37\.sky130_fd_sc_hd__mux2_1_3_X
*1146 sb_1__0_\.mux_left_track_37\.sky130_fd_sc_hd__mux2_1_4_X
*1147 sb_1__0_\.mux_left_track_45\.out
*1148 sb_1__0_\.mux_left_track_45\.sky130_fd_sc_hd__mux2_1_0_X
*1149 sb_1__0_\.mux_left_track_45\.sky130_fd_sc_hd__mux2_1_1_X
*1150 sb_1__0_\.mux_left_track_45\.sky130_fd_sc_hd__mux2_1_2_X
*1151 sb_1__0_\.mux_left_track_45\.sky130_fd_sc_hd__mux2_1_3_X
*1152 sb_1__0_\.mux_left_track_5\.out
*1153 sb_1__0_\.mux_left_track_5\.sky130_fd_sc_hd__mux2_1_0_X
*1154 sb_1__0_\.mux_left_track_5\.sky130_fd_sc_hd__mux2_1_1_X
*1155 sb_1__0_\.mux_left_track_5\.sky130_fd_sc_hd__mux2_1_2_X
*1156 sb_1__0_\.mux_left_track_5\.sky130_fd_sc_hd__mux2_1_3_X
*1157 sb_1__0_\.mux_left_track_5\.sky130_fd_sc_hd__mux2_1_4_X
*1158 sb_1__0_\.mux_left_track_53\.out
*1159 sb_1__0_\.mux_left_track_53\.sky130_fd_sc_hd__mux2_1_0_X
*1160 sb_1__0_\.mux_left_track_53\.sky130_fd_sc_hd__mux2_1_1_X
*1161 sb_1__0_\.mux_left_track_53\.sky130_fd_sc_hd__mux2_1_2_X
*1162 sb_1__0_\.mux_left_track_53\.sky130_fd_sc_hd__mux2_1_3_X
*1163 sb_1__0_\.mux_left_track_7\.out
*1164 sb_1__0_\.mux_left_track_7\.sky130_fd_sc_hd__mux2_1_0_X
*1165 sb_1__0_\.mux_left_track_7\.sky130_fd_sc_hd__mux2_1_1_X
*1166 sb_1__0_\.mux_left_track_7\.sky130_fd_sc_hd__mux2_1_2_X
*1167 sb_1__0_\.mux_left_track_7\.sky130_fd_sc_hd__mux2_1_3_X
*1168 sb_1__0_\.mux_left_track_7\.sky130_fd_sc_hd__mux2_1_4_X
*1169 sb_1__0_\.mux_left_track_7\.sky130_fd_sc_hd__mux2_1_5_X
*1170 sb_1__0_\.mux_right_track_0\.out