*SPEF "ieee 1481-1999"
*DESIGN "bottom_right_tile"
*DATE "11:11:11 Fri 11 11, 1111"
*VENDOR "OpenRCX"
*PROGRAM "Parallel Extraction"
*VERSION "1.0"
*DESIGN_FLOW "NAME_SCOPE LOCAL" "PIN_CAP NONE"
*DIVIDER /
*DELIMITER :
*BUS_DELIMITER []
*T_UNIT 1 NS
*C_UNIT 1 PF
*R_UNIT 1 OHM
*L_UNIT 1 HENRY

*NAME_MAP
*3 ccff_head
*4 ccff_head_1
*5 ccff_tail
*6 ccff_tail_0
*7 chanx_left_in[0]
*8 chanx_left_in[10]
*9 chanx_left_in[11]
*10 chanx_left_in[12]
*11 chanx_left_in[13]
*12 chanx_left_in[14]
*13 chanx_left_in[15]
*14 chanx_left_in[16]
*15 chanx_left_in[17]
*16 chanx_left_in[18]
*17 chanx_left_in[19]
*18 chanx_left_in[1]
*19 chanx_left_in[20]
*20 chanx_left_in[21]
*21 chanx_left_in[22]
*22 chanx_left_in[23]
*23 chanx_left_in[24]
*24 chanx_left_in[25]
*25 chanx_left_in[26]
*26 chanx_left_in[27]
*27 chanx_left_in[28]
*28 chanx_left_in[29]
*29 chanx_left_in[2]
*30 chanx_left_in[3]
*31 chanx_left_in[4]
*32 chanx_left_in[5]
*33 chanx_left_in[6]
*34 chanx_left_in[7]
*35 chanx_left_in[8]
*36 chanx_left_in[9]
*37 chanx_left_out[0]
*38 chanx_left_out[10]
*39 chanx_left_out[11]
*40 chanx_left_out[12]
*41 chanx_left_out[13]
*42 chanx_left_out[14]
*43 chanx_left_out[15]
*44 chanx_left_out[16]
*45 chanx_left_out[17]
*46 chanx_left_out[18]
*47 chanx_left_out[19]
*48 chanx_left_out[1]
*49 chanx_left_out[20]
*50 chanx_left_out[21]
*51 chanx_left_out[22]
*52 chanx_left_out[23]
*53 chanx_left_out[24]
*54 chanx_left_out[25]
*55 chanx_left_out[26]
*56 chanx_left_out[27]
*57 chanx_left_out[28]
*58 chanx_left_out[29]
*59 chanx_left_out[2]
*60 chanx_left_out[3]
*61 chanx_left_out[4]
*62 chanx_left_out[5]
*63 chanx_left_out[6]
*64 chanx_left_out[7]
*65 chanx_left_out[8]
*66 chanx_left_out[9]
*67 chany_top_in[0]
*68 chany_top_in[10]
*69 chany_top_in[11]
*70 chany_top_in[12]
*71 chany_top_in[13]
*72 chany_top_in[14]
*73 chany_top_in[15]
*74 chany_top_in[16]
*75 chany_top_in[17]
*76 chany_top_in[18]
*77 chany_top_in[19]
*78 chany_top_in[1]
*79 chany_top_in[20]
*80 chany_top_in[21]
*81 chany_top_in[22]
*82 chany_top_in[23]
*83 chany_top_in[24]
*84 chany_top_in[25]
*85 chany_top_in[26]
*86 chany_top_in[27]
*87 chany_top_in[28]
*88 chany_top_in[29]
*89 chany_top_in[2]
*90 chany_top_in[3]
*91 chany_top_in[4]
*92 chany_top_in[5]
*93 chany_top_in[6]
*94 chany_top_in[7]
*95 chany_top_in[8]
*96 chany_top_in[9]
*97 chany_top_out[0]
*98 chany_top_out[10]
*99 chany_top_out[11]
*100 chany_top_out[12]
*101 chany_top_out[13]
*102 chany_top_out[14]
*103 chany_top_out[15]
*104 chany_top_out[16]
*105 chany_top_out[17]
*106 chany_top_out[18]
*107 chany_top_out[19]
*108 chany_top_out[1]
*109 chany_top_out[20]
*110 chany_top_out[21]
*111 chany_top_out[22]
*112 chany_top_out[23]
*113 chany_top_out[24]
*114 chany_top_out[25]
*115 chany_top_out[26]
*116 chany_top_out[27]
*117 chany_top_out[28]
*118 chany_top_out[29]
*119 chany_top_out[2]
*120 chany_top_out[3]
*121 chany_top_out[4]
*122 chany_top_out[5]
*123 chany_top_out[6]
*124 chany_top_out[7]
*125 chany_top_out[8]
*126 chany_top_out[9]
*127 gfpga_pad_io_soc_dir[0]
*128 gfpga_pad_io_soc_dir[1]
*129 gfpga_pad_io_soc_dir[2]
*130 gfpga_pad_io_soc_dir[3]
*131 gfpga_pad_io_soc_in[0]
*132 gfpga_pad_io_soc_in[1]
*133 gfpga_pad_io_soc_in[2]
*134 gfpga_pad_io_soc_in[3]
*135 gfpga_pad_io_soc_out[0]
*136 gfpga_pad_io_soc_out[1]
*137 gfpga_pad_io_soc_out[2]
*138 gfpga_pad_io_soc_out[3]
*139 isol_n
*140 prog_clk
*141 prog_reset
*142 reset
*143 test_enable
*144 top_left_grid_right_width_0_height_0_subtile_0__pin_O_10_
*145 top_left_grid_right_width_0_height_0_subtile_0__pin_O_11_
*146 top_left_grid_right_width_0_height_0_subtile_0__pin_O_12_
*147 top_left_grid_right_width_0_height_0_subtile_0__pin_O_13_
*148 top_left_grid_right_width_0_height_0_subtile_0__pin_O_14_
*149 top_left_grid_right_width_0_height_0_subtile_0__pin_O_15_
*150 top_left_grid_right_width_0_height_0_subtile_0__pin_O_8_
*151 top_left_grid_right_width_0_height_0_subtile_0__pin_O_9_
*152 top_right_grid_left_width_0_height_0_subtile_0__pin_inpad_0_
*153 top_right_grid_left_width_0_height_0_subtile_1__pin_inpad_0_
*154 top_right_grid_left_width_0_height_0_subtile_2__pin_inpad_0_
*155 top_right_grid_left_width_0_height_0_subtile_3__pin_inpad_0_
*156 top_width_0_height_0_subtile_0__pin_inpad_0_
*157 top_width_0_height_0_subtile_1__pin_inpad_0_
*158 top_width_0_height_0_subtile_2__pin_inpad_0_
*159 top_width_0_height_0_subtile_3__pin_inpad_0_
*160 cbx_8__0_\.bottom_grid_top_width_0_height_0_subtile_0__pin_outpad_0_
*161 cbx_8__0_\.bottom_grid_top_width_0_height_0_subtile_1__pin_outpad_0_
*162 cbx_8__0_\.bottom_grid_top_width_0_height_0_subtile_2__pin_outpad_0_
*163 cbx_8__0_\.bottom_grid_top_width_0_height_0_subtile_3__pin_outpad_0_
*164 cbx_8__0_\.cbx_8__0_\.ccff_head
*165 cbx_8__0_\.cbx_8__0_\.mem_top_ipin_0\.ccff_tail
*166 cbx_8__0_\.cbx_8__0_\.mem_top_ipin_0\.mem_out\[0\]
*167 cbx_8__0_\.cbx_8__0_\.mem_top_ipin_0\.mem_out\[1\]
*168 cbx_8__0_\.cbx_8__0_\.mem_top_ipin_0\.mem_out\[2\]
*169 cbx_8__0_\.cbx_8__0_\.mem_top_ipin_1\.ccff_tail
*170 cbx_8__0_\.cbx_8__0_\.mem_top_ipin_1\.mem_out\[0\]
*171 cbx_8__0_\.cbx_8__0_\.mem_top_ipin_1\.mem_out\[1\]
*172 cbx_8__0_\.cbx_8__0_\.mem_top_ipin_1\.mem_out\[2\]
*173 cbx_8__0_\.cbx_8__0_\.mem_top_ipin_2\.ccff_tail
*174 cbx_8__0_\.cbx_8__0_\.mem_top_ipin_2\.mem_out\[0\]
*175 cbx_8__0_\.cbx_8__0_\.mem_top_ipin_2\.mem_out\[1\]
*176 cbx_8__0_\.cbx_8__0_\.mem_top_ipin_2\.mem_out\[2\]
*177 cbx_8__0_\.cbx_8__0_\.mem_top_ipin_3\.mem_out\[0\]
*178 cbx_8__0_\.cbx_8__0_\.mem_top_ipin_3\.mem_out\[1\]
*179 cbx_8__0_\.cbx_8__0_\.mem_top_ipin_3\.mem_out\[2\]
*180 cbx_8__0_\.cbx_8__0_\.mux_top_ipin_0\.sky130_fd_sc_hd__mux2_1_0_X
*181 cbx_8__0_\.cbx_8__0_\.mux_top_ipin_0\.sky130_fd_sc_hd__mux2_1_10_X
*182 cbx_8__0_\.cbx_8__0_\.mux_top_ipin_0\.sky130_fd_sc_hd__mux2_1_11_X
*183 cbx_8__0_\.cbx_8__0_\.mux_top_ipin_0\.sky130_fd_sc_hd__mux2_1_1_X
*184 cbx_8__0_\.cbx_8__0_\.mux_top_ipin_0\.sky130_fd_sc_hd__mux2_1_2_X
*185 cbx_8__0_\.cbx_8__0_\.mux_top_ipin_0\.sky130_fd_sc_hd__mux2_1_3_X
*186 cbx_8__0_\.cbx_8__0_\.mux_top_ipin_0\.sky130_fd_sc_hd__mux2_1_4_X
*187 cbx_8__0_\.cbx_8__0_\.mux_top_ipin_0\.sky130_fd_sc_hd__mux2_1_5_X
*188 cbx_8__0_\.cbx_8__0_\.mux_top_ipin_0\.sky130_fd_sc_hd__mux2_1_6_X
*189 cbx_8__0_\.cbx_8__0_\.mux_top_ipin_0\.sky130_fd_sc_hd__mux2_1_7_X
*190 cbx_8__0_\.cbx_8__0_\.mux_top_ipin_0\.sky130_fd_sc_hd__mux2_1_8_X
*191 cbx_8__0_\.cbx_8__0_\.mux_top_ipin_0\.sky130_fd_sc_hd__mux2_1_9_X
*192 cbx_8__0_\.cbx_8__0_\.mux_top_ipin_1\.sky130_fd_sc_hd__mux2_1_0_X
*193 cbx_8__0_\.cbx_8__0_\.mux_top_ipin_1\.sky130_fd_sc_hd__mux2_1_10_X
*194 cbx_8__0_\.cbx_8__0_\.mux_top_ipin_1\.sky130_fd_sc_hd__mux2_1_11_X
*195 cbx_8__0_\.cbx_8__0_\.mux_top_ipin_1\.sky130_fd_sc_hd__mux2_1_1_X
*196 cbx_8__0_\.cbx_8__0_\.mux_top_ipin_1\.sky130_fd_sc_hd__mux2_1_2_X
*197 cbx_8__0_\.cbx_8__0_\.mux_top_ipin_1\.sky130_fd_sc_hd__mux2_1_3_X
*198 cbx_8__0_\.cbx_8__0_\.mux_top_ipin_1\.sky130_fd_sc_hd__mux2_1_4_X
*199 cbx_8__0_\.cbx_8__0_\.mux_top_ipin_1\.sky130_fd_sc_hd__mux2_1_5_X
*200 cbx_8__0_\.cbx_8__0_\.mux_top_ipin_1\.sky130_fd_sc_hd__mux2_1_6_X
*201 cbx_8__0_\.cbx_8__0_\.mux_top_ipin_1\.sky130_fd_sc_hd__mux2_1_7_X
*202 cbx_8__0_\.cbx_8__0_\.mux_top_ipin_1\.sky130_fd_sc_hd__mux2_1_8_X
*203 cbx_8__0_\.cbx_8__0_\.mux_top_ipin_1\.sky130_fd_sc_hd__mux2_1_9_X
*204 cbx_8__0_\.cbx_8__0_\.mux_top_ipin_2\.sky130_fd_sc_hd__mux2_1_0_X
*205 cbx_8__0_\.cbx_8__0_\.mux_top_ipin_2\.sky130_fd_sc_hd__mux2_1_10_X
*206 cbx_8__0_\.cbx_8__0_\.mux_top_ipin_2\.sky130_fd_sc_hd__mux2_1_11_X
*207 cbx_8__0_\.cbx_8__0_\.mux_top_ipin_2\.sky130_fd_sc_hd__mux2_1_1_X
*208 cbx_8__0_\.cbx_8__0_\.mux_top_ipin_2\.sky130_fd_sc_hd__mux2_1_2_X
*209 cbx_8__0_\.cbx_8__0_\.mux_top_ipin_2\.sky130_fd_sc_hd__mux2_1_3_X
*210 cbx_8__0_\.cbx_8__0_\.mux_top_ipin_2\.sky130_fd_sc_hd__mux2_1_4_X
*211 cbx_8__0_\.cbx_8__0_\.mux_top_ipin_2\.sky130_fd_sc_hd__mux2_1_5_X
*212 cbx_8__0_\.cbx_8__0_\.mux_top_ipin_2\.sky130_fd_sc_hd__mux2_1_6_X
*213 cbx_8__0_\.cbx_8__0_\.mux_top_ipin_2\.sky130_fd_sc_hd__mux2_1_7_X
*214 cbx_8__0_\.cbx_8__0_\.mux_top_ipin_2\.sky130_fd_sc_hd__mux2_1_8_X
*215 cbx_8__0_\.cbx_8__0_\.mux_top_ipin_2\.sky130_fd_sc_hd__mux2_1_9_X
*216 cbx_8__0_\.cbx_8__0_\.mux_top_ipin_3\.sky130_fd_sc_hd__mux2_1_0_X
*217 cbx_8__0_\.cbx_8__0_\.mux_top_ipin_3\.sky130_fd_sc_hd__mux2_1_10_X
*218 cbx_8__0_\.cbx_8__0_\.mux_top_ipin_3\.sky130_fd_sc_hd__mux2_1_11_X
*219 cbx_8__0_\.cbx_8__0_\.mux_top_ipin_3\.sky130_fd_sc_hd__mux2_1_1_X
*220 cbx_8__0_\.cbx_8__0_\.mux_top_ipin_3\.sky130_fd_sc_hd__mux2_1_2_X
*221 cbx_8__0_\.cbx_8__0_\.mux_top_ipin_3\.sky130_fd_sc_hd__mux2_1_3_X
*222 cbx_8__0_\.cbx_8__0_\.mux_top_ipin_3\.sky130_fd_sc_hd__mux2_1_4_X
*223 cbx_8__0_\.cbx_8__0_\.mux_top_ipin_3\.sky130_fd_sc_hd__mux2_1_5_X
*224 cbx_8__0_\.cbx_8__0_\.mux_top_ipin_3\.sky130_fd_sc_hd__mux2_1_6_X
*225 cbx_8__0_\.cbx_8__0_\.mux_top_ipin_3\.sky130_fd_sc_hd__mux2_1_7_X
*226 cbx_8__0_\.cbx_8__0_\.mux_top_ipin_3\.sky130_fd_sc_hd__mux2_1_8_X
*227 cbx_8__0_\.cbx_8__0_\.mux_top_ipin_3\.sky130_fd_sc_hd__mux2_1_9_X
*228 cbx_8__0_\.grid_io_bottom_bottom_8__0_\.logical_tile_io_mode_io__0\.ccff_tail
*229 cbx_8__0_\.grid_io_bottom_bottom_8__0_\.logical_tile_io_mode_io__0\.gfpga_pad_io_soc_dir
*230 cbx_8__0_\.grid_io_bottom_bottom_8__0_\.logical_tile_io_mode_io__0\.logical_tile_io_mode_physical__iopad_0\.io_0_\.SOC_DIR_N
*231 cbx_8__0_\.grid_io_bottom_bottom_8__0_\.logical_tile_io_mode_io__1\.ccff_tail
*232 cbx_8__0_\.grid_io_bottom_bottom_8__0_\.logical_tile_io_mode_io__1\.gfpga_pad_io_soc_dir
*233 cbx_8__0_\.grid_io_bottom_bottom_8__0_\.logical_tile_io_mode_io__1\.logical_tile_io_mode_physical__iopad_0\.io_0_\.SOC_DIR_N
*234 cbx_8__0_\.grid_io_bottom_bottom_8__0_\.logical_tile_io_mode_io__2\.ccff_tail
*235 cbx_8__0_\.grid_io_bottom_bottom_8__0_\.logical_tile_io_mode_io__2\.gfpga_pad_io_soc_dir
*236 cbx_8__0_\.grid_io_bottom_bottom_8__0_\.logical_tile_io_mode_io__2\.logical_tile_io_mode_physical__iopad_0\.io_0_\.SOC_DIR_N
*237 cbx_8__0_\.grid_io_bottom_bottom_8__0_\.logical_tile_io_mode_io__3\.gfpga_pad_io_soc_dir
*238 cbx_8__0_\.grid_io_bottom_bottom_8__0_\.logical_tile_io_mode_io__3\.logical_tile_io_mode_physical__iopad_0\.io_0_\.SOC_DIR_N
*239 clknet_0_prog_clk
*240 clknet_4_0_0_prog_clk
*241 clknet_4_10_0_prog_clk
*242 clknet_4_11_0_prog_clk
*243 clknet_4_12_0_prog_clk
*244 clknet_4_13_0_prog_clk
*245 clknet_4_14_0_prog_clk
*246 clknet_4_15_0_prog_clk
*247 clknet_4_1_0_prog_clk
*248 clknet_4_2_0_prog_clk
*249 clknet_4_3_0_prog_clk
*250 clknet_4_4_0_prog_clk
*251 clknet_4_5_0_prog_clk
*252 clknet_4_6_0_prog_clk
*253 clknet_4_7_0_prog_clk
*254 clknet_4_8_0_prog_clk
*255 clknet_4_9_0_prog_clk
*256 net1
*257 net10
*258 net100
*259 net101
*260 net102
*261 net103
*262 net104
*263 net105
*264 net106
*265 net107
*266 net108
*267 net109
*268 net11
*269 net110
*270 net111
*271 net112
*272 net113
*273 net114
*274 net115
*275 net116
*276 net117
*277 net118
*278 net119
*279 net12
*280 net120
*281 net121
*282 net122
*283 net123
*284 net124
*285 net125
*286 net126
*287 net127
*288 net128
*289 net129
*290 net13
*291 net130
*292 net131
*293 net132
*294 net133
*295 net134
*296 net135
*297 net136
*298 net137
*299 net138
*300 net139
*301 net14
*302 net140
*303 net141
*304 net142
*305 net143
*306 net144
*307 net145
*308 net146
*309 net147
*310 net148
*311 net149
*312 net15
*313 net150
*314 net151
*315 net152
*316 net153
*317 net154
*318 net155
*319 net156
*320 net157
*321 net158
*322 net159
*323 net16
*324 net160
*325 net161
*326 net162
*327 net163
*328 net164
*329 net165
*330 net166
*331 net167
*332 net168
*333 net169
*334 net17
*335 net170
*336 net171
*337 net172
*338 net173
*339 net174
*340 net175
*341 net176
*342 net177
*343 net178
*344 net179
*345 net18
*346 net180
*347 net181
*348 net182
*349 net183
*350 net184
*351 net185
*352 net186
*353 net187
*354 net188
*355 net189
*356 net19
*357 net190
*358 net191
*359 net192
*360 net193
*361 net194
*362 net195
*363 net196
*364 net197
*365 net198
*366 net199
*367 net2
*368 net20
*369 net200
*370 net201
*371 net202
*372 net203
*373 net204
*374 net205
*375 net206
*376 net207
*377 net208
*378 net209
*379 net21
*380 net210
*381 net211
*382 net212
*383 net213
*384 net214
*385 net215
*386 net216
*387 net217
*388 net218
*389 net219
*390 net22
*391 net220
*392 net221
*393 net222
*394 net223
*395 net224
*396 net225
*397 net226
*398 net227
*399 net228
*400 net229
*401 net23
*402 net230
*403 net231
*404 net232
*405 net233
*406 net234
*407 net235
*408 net236
*409 net237
*410 net238
*411 net239
*412 net24
*413 net240
*414 net241
*415 net242
*416 net243
*417 net244
*418 net245
*419 net246
*420 net247
*421 net248
*422 net249
*423 net25
*424 net250
*425 net251
*426 net252
*427 net253
*428 net254
*429 net255
*430 net256
*431 net257
*432 net258
*433 net259
*434 net26
*435 net260
*436 net261
*437 net262
*438 net263
*439 net264
*440 net265
*441 net266
*442 net267
*443 net268
*444 net269
*445 net27
*446 net270
*447 net271
*448 net272
*449 net273
*450 net274
*451 net275
*452 net276
*453 net277
*454 net278
*455 net279
*456 net28
*457 net280
*458 net281
*459 net282
*460 net283
*461 net284
*462 net285
*463 net286
*464 net287
*465 net288
*466 net289
*467 net29
*468 net290
*469 net291
*470 net292
*471 net293
*472 net294
*473 net295
*474 net296
*475 net297
*476 net298
*477 net299
*478 net3
*479 net30
*480 net300
*481 net301
*482 net302
*483 net303
*484 net304
*485 net305
*486 net306
*487 net307
*488 net308
*489 net309
*490 net31
*491 net310
*492 net311
*493 net312
*494 net313
*495 net314
*496 net315
*497 net316
*498 net317
*499 net318
*500 net319
*501 net32
*502 net320
*503 net321
*504 net322
*505 net323
*506 net324
*507 net325
*508 net326
*509 net327
*510 net328
*511 net329
*512 net33
*513 net330
*514 net331
*515 net332
*516 net333
*517 net334
*518 net335
*519 net336
*520 net337
*521 net338
*522 net339
*523 net34
*524 net340
*525 net341
*526 net342
*527 net343
*528 net344
*529 net345
*530 net346
*531 net347
*532 net348
*533 net349
*534 net35
*535 net350
*536 net351
*537 net352
*538 net353
*539 net354
*540 net355
*541 net356
*542 net357
*543 net358
*544 net359
*545 net36
*546 net360
*547 net361
*548 net362
*549 net363
*550 net364
*551 net365
*552 net366
*553 net367
*554 net368
*555 net369
*556 net37
*557 net370
*558 net371
*559 net372
*560 net373
*561 net374
*562 net375
*563 net376
*564 net377
*565 net378
*566 net379
*567 net38
*568 net380
*569 net381
*570 net382
*571 net383
*572 net384
*573 net385
*574 net386
*575 net387
*576 net388
*577 net389
*578 net39
*579 net390
*580 net391
*581 net392
*582 net393
*583 net394
*584 net395
*585 net396
*586 net397
*587 net398
*588 net399
*589 net4
*590 net40
*591 net400
*592 net401
*593 net402
*594 net403
*595 net404
*596 net405
*597 net406
*598 net407
*599 net408
*600 net409
*601 net41
*602 net410
*603 net411
*604 net412
*605 net413
*606 net414
*607 net415
*608 net416
*609 net417
*610 net418
*611 net419
*612 net42
*613 net420
*614 net421
*615 net422
*616 net423
*617 net424
*618 net425
*619 net426
*620 net427
*621 net428
*622 net429
*623 net43
*624 net430
*625 net431
*626 net432
*627 net433
*628 net434
*629 net435
*630 net436
*631 net437
*632 net438
*633 net439
*634 net44
*635 net440
*636 net441
*637 net442
*638 net443
*639 net444
*640 net445
*641 net446
*642 net447
*643 net448
*644 net449
*645 net45
*646 net450
*647 net451
*648 net452
*649 net453
*650 net454
*651 net455
*652 net456
*653 net457
*654 net458
*655 net459
*656 net46
*657 net460
*658 net461
*659 net462
*660 net463
*661 net464
*662 net465
*663 net466
*664 net467
*665 net468
*666 net469
*667 net47
*668 net470
*669 net471
*670 net472
*671 net473
*672 net474
*673 net475
*674 net476
*675 net477
*676 net478
*677 net479
*678 net48
*679 net480
*680 net481
*681 net482
*682 net483
*683 net484
*684 net485
*685 net486
*686 net487
*687 net488
*688 net489
*689 net49
*690 net490
*691 net491
*692 net492
*693 net493
*694 net494
*695 net495
*696 net496
*697 net497
*698 net498
*699 net499
*700 net5
*701 net50
*702 net500
*703 net501
*704 net502
*705 net503
*706 net504
*707 net505
*708 net506
*709 net507
*710 net508
*711 net509
*712 net51
*713 net510
*714 net511
*715 net512
*716 net513
*717 net514
*718 net515
*719 net516
*720 net517
*721 net518
*722 net519
*723 net52
*724 net520
*725 net521
*726 net522
*727 net523
*728 net524
*729 net525
*730 net526
*731 net53
*732 net54
*733 net55
*734 net56
*735 net57
*736 net58
*737 net59
*738 net6
*739 net60
*740 net61
*741 net62
*742 net63
*743 net64
*744 net65
*745 net66
*746 net67
*747 net68
*748 net69
*749 net7
*750 net70
*751 net71
*752 net72
*753 net73
*754 net74
*755 net75
*756 net76
*757 net77
*758 net78
*759 net79
*760 net8
*761 net80
*762 net81
*763 net82
*764 net83
*765 net84
*766 net85
*767 net86
*768 net87
*769 net88
*770 net89
*771 net9
*772 net90
*773 net91
*774 net92
*775 net93
*776 net94
*777 net95
*778 net96
*779 net97
*780 net98
*781 net99
*782 sb_8__0_\.mem_left_track_1\.ccff_head
*783 sb_8__0_\.mem_left_track_1\.ccff_tail
*784 sb_8__0_\.mem_left_track_1\.mem_out\[0\]
*785 sb_8__0_\.mem_left_track_11\.ccff_head
*786 sb_8__0_\.mem_left_track_11\.ccff_tail
*787 sb_8__0_\.mem_left_track_11\.mem_out\[0\]
*788 sb_8__0_\.mem_left_track_13\.ccff_tail
*789 sb_8__0_\.mem_left_track_13\.mem_out\[0\]
*790 sb_8__0_\.mem_left_track_15\.ccff_tail
*791 sb_8__0_\.mem_left_track_15\.mem_out\[0\]
*792 sb_8__0_\.mem_left_track_17\.ccff_tail
*793 sb_8__0_\.mem_left_track_17\.mem_out\[0\]
*794 sb_8__0_\.mem_left_track_19\.ccff_tail
*795 sb_8__0_\.mem_left_track_19\.mem_out\[0\]
*796 sb_8__0_\.mem_left_track_29\.ccff_tail
*797 sb_8__0_\.mem_left_track_29\.mem_out\[0\]
*798 sb_8__0_\.mem_left_track_3\.ccff_tail
*799 sb_8__0_\.mem_left_track_3\.mem_out\[0\]
*800 sb_8__0_\.mem_left_track_31\.ccff_tail
*801 sb_8__0_\.mem_left_track_31\.mem_out\[0\]
*802 sb_8__0_\.mem_left_track_33\.ccff_tail
*803 sb_8__0_\.mem_left_track_33\.mem_out\[0\]
*804 sb_8__0_\.mem_left_track_35\.ccff_tail
*805 sb_8__0_\.mem_left_track_35\.mem_out\[0\]
*806 sb_8__0_\.mem_left_track_45\.ccff_tail
*807 sb_8__0_\.mem_left_track_45\.mem_out\[0\]
*808 sb_8__0_\.mem_left_track_47\.ccff_tail
*809 sb_8__0_\.mem_left_track_47\.mem_out\[0\]
*810 sb_8__0_\.mem_left_track_49\.ccff_tail
*811 sb_8__0_\.mem_left_track_49\.mem_out\[0\]
*812 sb_8__0_\.mem_left_track_5\.ccff_tail
*813 sb_8__0_\.mem_left_track_5\.mem_out\[0\]
*814 sb_8__0_\.mem_left_track_51\.mem_out\[0\]
*815 sb_8__0_\.mem_left_track_7\.ccff_tail
*816 sb_8__0_\.mem_left_track_7\.mem_out\[0\]
*817 sb_8__0_\.mem_left_track_9\.mem_out\[0\]
*818 sb_8__0_\.mem_top_track_0\.ccff_tail
*819 sb_8__0_\.mem_top_track_0\.mem_out\[0\]
*820 sb_8__0_\.mem_top_track_0\.mem_out\[1\]
*821 sb_8__0_\.mem_top_track_10\.ccff_head
*822 sb_8__0_\.mem_top_track_10\.ccff_tail
*823 sb_8__0_\.mem_top_track_10\.mem_out\[0\]
*824 sb_8__0_\.mem_top_track_10\.mem_out\[1\]
*825 sb_8__0_\.mem_top_track_12\.ccff_tail
*826 sb_8__0_\.mem_top_track_12\.mem_out\[0\]
*827 sb_8__0_\.mem_top_track_14\.ccff_tail
*828 sb_8__0_\.mem_top_track_14\.mem_out\[0\]
*829 sb_8__0_\.mem_top_track_16\.ccff_tail
*830 sb_8__0_\.mem_top_track_16\.mem_out\[0\]
*831 sb_8__0_\.mem_top_track_18\.ccff_tail
*832 sb_8__0_\.mem_top_track_18\.mem_out\[0\]
*833 sb_8__0_\.mem_top_track_2\.ccff_tail
*834 sb_8__0_\.mem_top_track_2\.mem_out\[0\]
*835 sb_8__0_\.mem_top_track_2\.mem_out\[1\]
*836 sb_8__0_\.mem_top_track_20\.ccff_tail
*837 sb_8__0_\.mem_top_track_20\.mem_out\[0\]
*838 sb_8__0_\.mem_top_track_22\.ccff_tail
*839 sb_8__0_\.mem_top_track_22\.mem_out\[0\]
*840 sb_8__0_\.mem_top_track_24\.ccff_tail
*841 sb_8__0_\.mem_top_track_24\.mem_out\[0\]
*842 sb_8__0_\.mem_top_track_26\.ccff_tail
*843 sb_8__0_\.mem_top_track_26\.mem_out\[0\]
*844 sb_8__0_\.mem_top_track_28\.ccff_tail
*845 sb_8__0_\.mem_top_track_28\.mem_out\[0\]
*846 sb_8__0_\.mem_top_track_30\.ccff_tail
*847 sb_8__0_\.mem_top_track_30\.mem_out\[0\]
*848 sb_8__0_\.mem_top_track_32\.ccff_tail
*849 sb_8__0_\.mem_top_track_32\.mem_out\[0\]
*850 sb_8__0_\.mem_top_track_34\.ccff_tail
*851 sb_8__0_\.mem_top_track_34\.mem_out\[0\]
*852 sb_8__0_\.mem_top_track_36\.ccff_tail
*853 sb_8__0_\.mem_top_track_36\.mem_out\[0\]
*854 sb_8__0_\.mem_top_track_38\.ccff_tail
*855 sb_8__0_\.mem_top_track_38\.mem_out\[0\]
*856 sb_8__0_\.mem_top_track_4\.ccff_tail
*857 sb_8__0_\.mem_top_track_4\.mem_out\[0\]
*858 sb_8__0_\.mem_top_track_4\.mem_out\[1\]
*859 sb_8__0_\.mem_top_track_40\.ccff_tail
*860 sb_8__0_\.mem_top_track_40\.mem_out\[0\]
*861 sb_8__0_\.mem_top_track_42\.ccff_tail
*862 sb_8__0_\.mem_top_track_42\.mem_out\[0\]
*863 sb_8__0_\.mem_top_track_44\.ccff_tail
*864 sb_8__0_\.mem_top_track_44\.mem_out\[0\]
*865 sb_8__0_\.mem_top_track_46\.ccff_tail
*866 sb_8__0_\.mem_top_track_46\.mem_out\[0\]
*867 sb_8__0_\.mem_top_track_48\.ccff_tail
*868 sb_8__0_\.mem_top_track_48\.mem_out\[0\]
*869 sb_8__0_\.mem_top_track_50\.mem_out\[0\]
*870 sb_8__0_\.mem_top_track_6\.ccff_tail
*871 sb_8__0_\.mem_top_track_6\.mem_out\[0\]
*872 sb_8__0_\.mem_top_track_6\.mem_out\[1\]
*873 sb_8__0_\.mem_top_track_8\.mem_out\[0\]
*874 sb_8__0_\.mem_top_track_8\.mem_out\[1\]
*875 sb_8__0_\.mux_left_track_1\.out
*876 sb_8__0_\.mux_left_track_1\.sky130_fd_sc_hd__mux2_1_0_X
*877 sb_8__0_\.mux_left_track_1\.sky130_fd_sc_hd__mux2_1_1_X
*878 sb_8__0_\.mux_left_track_1\.sky130_fd_sc_hd__mux2_1_2_X
*879 sb_8__0_\.mux_left_track_11\.out
*880 sb_8__0_\.mux_left_track_11\.sky130_fd_sc_hd__mux2_1_0_X
*881 sb_8__0_\.mux_left_track_11\.sky130_fd_sc_hd__mux2_1_1_X
*882 sb_8__0_\.mux_left_track_13\.out
*883 sb_8__0_\.mux_left_track_13\.sky130_fd_sc_hd__mux2_1_0_X
*884 sb_8__0_\.mux_left_track_13\.sky130_fd_sc_hd__mux2_1_1_X
*885 sb_8__0_\.mux_left_track_15\.out
*886 sb_8__0_\.mux_left_track_15\.sky130_fd_sc_hd__mux2_1_0_X
*887 sb_8__0_\.mux_left_track_15\.sky130_fd_sc_hd__mux2_1_1_X
*888 sb_8__0_\.mux_left_track_17\.out
*889 sb_8__0_\.mux_left_track_17\.sky130_fd_sc_hd__mux2_1_0_X
*890 sb_8__0_\.mux_left_track_17\.sky130_fd_sc_hd__mux2_1_1_X
*891 sb_8__0_\.mux_left_track_19\.out
*892 sb_8__0_\.mux_left_track_19\.sky130_fd_sc_hd__mux2_1_0_X
*893 sb_8__0_\.mux_left_track_19\.sky130_fd_sc_hd__mux2_1_1_X
*894 sb_8__0_\.mux_left_track_29\.out
*895 sb_8__0_\.mux_left_track_29\.sky130_fd_sc_hd__mux2_1_0_X
*896 sb_8__0_\.mux_left_track_29\.sky130_fd_sc_hd__mux2_1_1_X
*897 sb_8__0_\.mux_left_track_3\.out
*898 sb_8__0_\.mux_left_track_3\.sky130_fd_sc_hd__mux2_1_0_X
*899 sb_8__0_\.mux_left_track_3\.sky130_fd_sc_hd__mux2_1_1_X
*900 sb_8__0_\.mux_left_track_31\.out
*901 sb_8__0_\.mux_left_track_31\.sky130_fd_sc_hd__mux2_1_0_X
*902 sb_8__0_\.mux_left_track_31\.sky130_fd_sc_hd__mux2_1_1_X
*903 sb_8__0_\.mux_left_track_33\.out
*904 sb_8__0_\.mux_left_track_33\.sky130_fd_sc_hd__mux2_1_0_X
*905 sb_8__0_\.mux_left_track_33\.sky130_fd_sc_hd__mux2_1_1_X
*906 sb_8__0_\.mux_left_track_35\.out
*907 sb_8__0_\.mux_left_track_35\.sky130_fd_sc_hd__mux2_1_0_X
*908 sb_8__0_\.mux_left_track_35\.sky130_fd_sc_hd__mux2_1_1_X
*909 sb_8__0_\.mux_left_track_45\.out
*910 sb_8__0_\.mux_left_track_45\.sky130_fd_sc_hd__mux2_1_0_X
*911 sb_8__0_\.mux_left_track_45\.sky130_fd_sc_hd__mux2_1_1_X
*912 sb_8__0_\.mux_left_track_47\.out
*913 sb_8__0_\.mux_left_track_47\.sky130_fd_sc_hd__mux2_1_0_X
*914 sb_8__0_\.mux_left_track_47\.sky130_fd_sc_hd__mux2_1_1_X
*915 sb_8__0_\.mux_left_track_49\.out
*916 sb_8__0_\.mux_left_track_49\.sky130_fd_sc_hd__mux2_1_0_X
*917 sb_8__0_\.mux_left_track_49\.sky130_fd_sc_hd__mux2_1_1_X
*918 sb_8__0_\.mux_left_track_5\.out
*919 sb_8__0_\.mux_left_track_5\.sky130_fd_sc_hd__mux2_1_0_X
*920 sb_8__0_\.mux_left_track_5\.sky130_fd_sc_hd__mux2_1_1_X
*921 sb_8__0_\.mux_left_track_51\.out
*922 sb_8__0_\.mux_left_track_51\.sky130_fd_sc_hd__mux2_1_0_X
*923 sb_8__0_\.mux_left_track_51\.sky130_fd_sc_hd__mux2_1_1_X
*924 sb_8__0_\.mux_left_track_7\.out
*925 sb_8__0_\.mux_left_track_7\.sky130_fd_sc_hd__mux2_1_0_X
*926 sb_8__0_\.mux_left_track_7\.sky130_fd_sc_hd__mux2_1_1_X
*927 sb_8__0_\.mux_left_track_7\.sky130_fd_sc_hd__mux2_1_2_X
*928 sb_8__0_\.mux_left_track_9\.out
*929 sb_8__0_\.mux_left_track_9\.sky130_fd_sc_hd__mux2_1_0_X
*930 sb_8__0_\.mux_left_track_9\.sky130_fd_sc_hd__mux2_1_1_X
*931 sb_8__0_\.mux_top_track_0\.out
*932 sb_8__0_\.mux_top_track_0\.sky130_fd_sc_hd__mux2_1_0_X
*933 sb_8__0_\.mux_top_track_0\.sky130_fd_sc_hd__mux2_1_1_X
*934 sb_8__0_\.mux_top_track_0\.sky130_fd_sc_hd__mux2_1_2_X
*935 sb_8__0_\.mux_top_track_0\.sky130_fd_sc_hd__mux2_1_3_X
*936 sb_8__0_\.mux_top_track_0\.sky130_fd_sc_hd__mux2_1_4_X
*937 sb_8__0_\.mux_top_track_10\.out
*938 sb_8__0_\.mux_top_track_10\.sky130_fd_sc_hd__mux2_1_0_X
*939 sb_8__0_\.mux_top_track_10\.sky130_fd_sc_hd__mux2_1_1_X
*940 sb_8__0_\.mux_top_track_10\.sky130_fd_sc_hd__mux2_1_2_X
*941 sb_8__0_\.mux_top_track_10\.sky130_fd_sc_hd__mux2_1_3_X
*942 sb_8__0_\.mux_top_track_10\.sky130_fd_sc_hd__mux2_1_4_X
*943 sb_8__0_\.mux_top_track_12\.out
*944 sb_8__0_\.mux_top_track_12\.sky130_fd_sc_hd__mux2_1_0_X
*945 sb_8__0_\.mux_top_track_12\.sky130_fd_sc_hd__mux2_1_1_X
*946 sb_8__0_\.mux_top_track_12\.sky130_fd_sc_hd__mux2_1_2_X
*947 sb_8__0_\.mux_top_track_14\.out
*948 sb_8__0_\.mux_top_track_14\.sky130_fd_sc_hd__mux2_1_0_X
*949 sb_8__0_\.mux_top_track_14\.sky130_fd_sc_hd__mux2_1_1_X
*950 sb_8__0_\.mux_top_track_14\.sky130_fd_sc_hd__mux2_1_2_X
*951 sb_8__0_\.mux_top_track_16\.out
*952 sb_8__0_\.mux_top_track_16\.sky130_fd_sc_hd__mux2_1_0_X
*953 sb_8__0_\.mux_top_track_16\.sky130_fd_sc_hd__mux2_1_1_X
*954 sb_8__0_\.mux_top_track_16\.sky130_fd_sc_hd__mux2_1_2_X
*955 sb_8__0_\.mux_top_track_18\.out
*956 sb_8__0_\.mux_top_track_18\.sky130_fd_sc_hd__mux2_1_0_X
*957 sb_8__0_\.mux_top_track_18\.sky130_fd_sc_hd__mux2_1_1_X
*958 sb_8__0_\.mux_top_track_18\.sky130_fd_sc_hd__mux2_1_2_X
*959 sb_8__0_\.mux_top_track_2\.out
*960 sb_8__0_\.mux_top_track_2\.sky130_fd_sc_hd__mux2_1_0_X
*961 sb_8__0_\.mux_top_track_2\.sky130_fd_sc_hd__mux2_1_1_X
*962 sb_8__0_\.mux_top_track_2\.sky130_fd_sc_hd__mux2_1_2_X
*963 sb_8__0_\.mux_top_track_2\.sky130_fd_sc_hd__mux2_1_3_X
*964 sb_8__0_\.mux_top_track_2\.sky130_fd_sc_hd__mux2_1_4_X
*965 sb_8__0_\.mux_top_track_20\.out
*966 sb_8__0_\.mux_top_track_20\.sky130_fd_sc_hd__mux2_1_0_X
*967 sb_8__0_\.mux_top_track_20\.sky130_fd_sc_hd__mux2_1_1_X
*968 sb_8__0_\.mux_top_track_22\.out
*969 sb_8__0_\.mux_top_track_22\.sky130_fd_sc_hd__mux2_1_0_X
*970 sb_8__0_\.mux_top_track_22\.sky130_fd_sc_hd__mux2_1_1_X
*971 sb_8__0_\.mux_top_track_24\.out
*972 sb_8__0_\.mux_top_track_24\.sky130_fd_sc_hd__mux2_1_0_X
*973 sb_8__0_\.mux_top_track_24\.sky130_fd_sc_hd__mux2_1_1_X
*974 sb_8__0_\.mux_top_track_26\.out
*975 sb_8__0_\.mux_top_track_26\.sky130_fd_sc_hd__mux2_1_0_X
*976 sb_8__0_\.mux_top_track_26\.sky130_fd_sc_hd__mux2_1_1_X
*977 sb_8__0_\.mux_top_track_28\.out
*978 sb_8__0_\.mux_top_track_28\.sky130_fd_sc_hd__mux2_1_0_X
*979 sb_8__0_\.mux_top_track_28\.sky130_fd_sc_hd__mux2_1_1_X
*980 sb_8__0_\.mux_top_track_30\.out
*981 sb_8__0_\.mux_top_track_30\.sky130_fd_sc_hd__mux2_1_0_X
*982 sb_8__0_\.mux_top_track_30\.sky130_fd_sc_hd__mux2_1_1_X
*983 sb_8__0_\.mux_top_track_32\.out
*984 sb_8__0_\.mux_top_track_32\.sky130_fd_sc_hd__mux2_1_0_X
*985 sb_8__0_\.mux_top_track_32\.sky130_fd_sc_hd__mux2_1_1_X
*986 sb_8__0_\.mux_top_track_34\.out
*987 sb_8__0_\.mux_top_track_34\.sky130_fd_sc_hd__mux2_1_0_X
*988 sb_8__0_\.mux_top_track_34\.sky130_fd_sc_hd__mux2_1_1_X
*989 sb_8__0_\.mux_top_track_36\.out
*990 sb_8__0_\.mux_top_track_36\.sky130_fd_sc_hd__mux2_1_0_X
*991 sb_8__0_\.mux_top_track_36\.sky130_fd_sc_hd__mux2_1_1_X
*992 sb_8__0_\.mux_top_track_38\.out
*993 sb_8__0_\.mux_top_track_38\.sky130_fd_sc_hd__mux2_1_0_X
*994 sb_8__0_\.mux_top_track_38\.sky130_fd_sc_hd__mux2_1_1_X
*995 sb_8__0_\.mux_top_track_4\.out
*996 sb_8__0_\.mux_top_track_4\.sky130_fd_sc_hd__mux2_1_0_X
*997 sb_8__0_\.mux_top_track_4\.sky130_fd_sc_hd__mux2_1_1_X
*998 sb_8__0_\.mux_top_track_4\.sky130_fd_sc_hd__mux2_1_2_X
*999 sb_8__0_\.mux_top_track_4\.sky130_fd_sc_hd__mux2_1_3_X
*1000 sb_8__0_\.mux_top_track_4\.sky130_fd_sc_hd__mux2_1_4_X
*1001 sb_8__0_\.mux_top_track_40\.out
*1002 sb_8__0_\.mux_top_track_40\.sky130_fd_sc_hd__mux2_1_0_X
*1003 sb_8__0_\.mux_top_track_40\.sky130_fd_sc_hd__mux2_1_1_X
*1004 sb_8__0_\.mux_top_track_42\.out
*1005 sb_8__0_\.mux_top_track_42\.sky130_fd_sc_hd__mux2_1_0_X
*1006 sb_8__0_\.mux_top_track_42\.sky130_fd_sc_hd__mux2_1_1_X
*1007 sb_8__0_\.mux_top_track_44\.out
*1008 sb_8__0_\.mux_top_track_44\.sky130_fd_sc_hd__mux2_1_0_X
*1009 sb_8__0_\.mux_top_track_44\.sky130_fd_sc_hd__mux2_1_1_X
*1010 sb_8__0_\.mux_top_track_44\.sky130_fd_sc_hd__mux2_1_2_X
*1011 sb_8__0_\.mux_top_track_46\.out
*1012 sb_8__0_\.mux_top_track_46\.sky130_fd_sc_hd__mux2_1_0_X
*1013 sb_8__0_\.mux_top_track_46\.sky130_fd_sc_hd__mux2_1_1_X
*1014 sb_8__0_\.mux_top_track_46\.sky130_fd_sc_hd__mux2_1_2_X
*1015 sb_8__0_\.mux_top_track_48\.out
*1016 sb_8__0_\.mux_top_track_48\.sky130_fd_sc_hd__mux2_1_0_X
*1017 sb_8__0_\.mux_top_track_48\.sky130_fd_sc_hd__mux2_1_1_X
*1018 sb_8__0_\.mux_top_track_48\.sky130_fd_sc_hd__mux2_1_2_X
*1019 sb_8__0_\.mux_top_track_50\.out
*1020 sb_8__0_\.mux_top_track_50\.sky130_fd_sc_hd__mux2_1_0_X
*1021 sb_8__0_\.mux_top_track_50\.sky130_fd_sc_hd__mux2_1_1_X
*1022 sb_8__0_\.mux_top_track_50\.sky130_fd_sc_hd__mux2_1_2_X
*1023 sb_8__0_\.mux_top_track_6\.out
*1024 sb_8__0_\.mux_top_track_6\.sky130_fd_sc_hd__mux2_1_0_X
*1025 sb_8__0_\.mux_top_track_6\.sky130_fd_sc_hd__mux2_1_1_X
*1026 sb_8__0_\.mux_top_track_6\.sky130_fd_sc_hd__mux2_1_2_X
*1027 sb_8__0_\.mux_top_track_6\.sky130_fd_sc_hd__mux2_1_3_X
*1028 sb_8__0_\.mux_top_track_6\.sky130_fd_sc_hd__mux2_1_4_X
*1029 sb_8__0_\.mux_top_track_8\.out
*1030 sb_8__0_\.mux_top_track_8\.sky130_fd_sc_hd__mux2_1_0_X
*1031 sb_8__0_\.mux_top_track_8\.sky130_fd_sc_hd__mux2_1_1_X
*1032 sb_8__0_\.mux_top_track_8\.sky130_fd_sc_hd__mux2_1_2_X
*1033 sb_8__0_\.mux_top_track_8\.sky130_fd_sc_hd__mux2_1_3_X
*1034 sb_8__0_\.mux_top_track_8\.sky130_fd_sc_hd__mux2_1_4_X
*1035 ANTENNA_1
*1036 ANTENNA_10
*1037 ANTENNA_11
*1038 ANTENNA_12
*1039 ANTENNA_13
*1040 ANTENNA_14
*1041 ANTENNA_15
*1042 ANTENNA_16
*1043 ANTENNA_17
*1044 ANTENNA_18
*1045 ANTENNA_19
*1046 ANTENNA_2
*1047 ANTENNA_20
*1048 ANTENNA_21
*1049 ANTENNA_22
*1050 ANTENNA_23
*1051 ANTENNA_24
*1052 ANTENNA_25
*1053 ANTENNA_26