*SPEF "ieee 1481-1999"
*DESIGN "bottom_right_tile"
*DATE "11:11:11 Fri 11 11, 1111"
*VENDOR "OpenRCX"
*PROGRAM "Parallel Extraction"
*VERSION "1.0"
*DESIGN_FLOW "NAME_SCOPE LOCAL" "PIN_CAP NONE"
*DIVIDER /
*DELIMITER :
*BUS_DELIMITER []
*T_UNIT 1 NS
*C_UNIT 1 PF
*R_UNIT 1 OHM
*L_UNIT 1 HENRY

*NAME_MAP
*3 ccff_head
*4 ccff_head_1
*5 ccff_tail
*6 ccff_tail_0
*7 chanx_left_in[0]
*8 chanx_left_in[10]
*9 chanx_left_in[11]
*10 chanx_left_in[12]
*11 chanx_left_in[13]
*12 chanx_left_in[14]
*13 chanx_left_in[15]
*14 chanx_left_in[16]
*15 chanx_left_in[17]
*16 chanx_left_in[18]
*17 chanx_left_in[19]
*18 chanx_left_in[1]
*19 chanx_left_in[20]
*20 chanx_left_in[21]
*21 chanx_left_in[22]
*22 chanx_left_in[23]
*23 chanx_left_in[24]
*24 chanx_left_in[25]
*25 chanx_left_in[26]
*26 chanx_left_in[27]
*27 chanx_left_in[28]
*28 chanx_left_in[29]
*29 chanx_left_in[2]
*30 chanx_left_in[3]
*31 chanx_left_in[4]
*32 chanx_left_in[5]
*33 chanx_left_in[6]
*34 chanx_left_in[7]
*35 chanx_left_in[8]
*36 chanx_left_in[9]
*37 chanx_left_out[0]
*38 chanx_left_out[10]
*39 chanx_left_out[11]
*40 chanx_left_out[12]
*41 chanx_left_out[13]
*42 chanx_left_out[14]
*43 chanx_left_out[15]
*44 chanx_left_out[16]
*45 chanx_left_out[17]
*46 chanx_left_out[18]
*47 chanx_left_out[19]
*48 chanx_left_out[1]
*49 chanx_left_out[20]
*50 chanx_left_out[21]
*51 chanx_left_out[22]
*52 chanx_left_out[23]
*53 chanx_left_out[24]
*54 chanx_left_out[25]
*55 chanx_left_out[26]
*56 chanx_left_out[27]
*57 chanx_left_out[28]
*58 chanx_left_out[29]
*59 chanx_left_out[2]
*60 chanx_left_out[3]
*61 chanx_left_out[4]
*62 chanx_left_out[5]
*63 chanx_left_out[6]
*64 chanx_left_out[7]
*65 chanx_left_out[8]
*66 chanx_left_out[9]
*67 chany_top_in[0]
*68 chany_top_in[10]
*69 chany_top_in[11]
*70 chany_top_in[12]
*71 chany_top_in[13]
*72 chany_top_in[14]
*73 chany_top_in[15]
*74 chany_top_in[16]
*75 chany_top_in[17]
*76 chany_top_in[18]
*77 chany_top_in[19]
*78 chany_top_in[1]
*79 chany_top_in[20]
*80 chany_top_in[21]
*81 chany_top_in[22]
*82 chany_top_in[23]
*83 chany_top_in[24]
*84 chany_top_in[25]
*85 chany_top_in[26]
*86 chany_top_in[27]
*87 chany_top_in[28]
*88 chany_top_in[29]
*89 chany_top_in[2]
*90 chany_top_in[3]
*91 chany_top_in[4]
*92 chany_top_in[5]
*93 chany_top_in[6]
*94 chany_top_in[7]
*95 chany_top_in[8]
*96 chany_top_in[9]
*97 chany_top_out[0]
*98 chany_top_out[10]
*99 chany_top_out[11]
*100 chany_top_out[12]
*101 chany_top_out[13]
*102 chany_top_out[14]
*103 chany_top_out[15]
*104 chany_top_out[16]
*105 chany_top_out[17]
*106 chany_top_out[18]
*107 chany_top_out[19]
*108 chany_top_out[1]
*109 chany_top_out[20]
*110 chany_top_out[21]
*111 chany_top_out[22]
*112 chany_top_out[23]
*113 chany_top_out[24]
*114 chany_top_out[25]
*115 chany_top_out[26]
*116 chany_top_out[27]
*117 chany_top_out[28]
*118 chany_top_out[29]
*119 chany_top_out[2]
*120 chany_top_out[3]
*121 chany_top_out[4]
*122 chany_top_out[5]
*123 chany_top_out[6]
*124 chany_top_out[7]
*125 chany_top_out[8]
*126 chany_top_out[9]
*127 gfpga_pad_io_soc_dir[0]
*128 gfpga_pad_io_soc_dir[1]
*129 gfpga_pad_io_soc_dir[2]
*130 gfpga_pad_io_soc_dir[3]
*131 gfpga_pad_io_soc_in[0]
*132 gfpga_pad_io_soc_in[1]
*133 gfpga_pad_io_soc_in[2]
*134 gfpga_pad_io_soc_in[3]
*135 gfpga_pad_io_soc_out[0]
*136 gfpga_pad_io_soc_out[1]
*137 gfpga_pad_io_soc_out[2]
*138 gfpga_pad_io_soc_out[3]
*139 isol_n
*140 prog_clk
*141 prog_reset
*142 reset
*143 test_enable
*144 top_left_grid_right_width_0_height_0_subtile_0__pin_O_10_
*145 top_left_grid_right_width_0_height_0_subtile_0__pin_O_11_
*146 top_left_grid_right_width_0_height_0_subtile_0__pin_O_12_
*147 top_left_grid_right_width_0_height_0_subtile_0__pin_O_13_
*148 top_left_grid_right_width_0_height_0_subtile_0__pin_O_14_
*149 top_left_grid_right_width_0_height_0_subtile_0__pin_O_15_
*150 top_left_grid_right_width_0_height_0_subtile_0__pin_O_8_
*151 top_left_grid_right_width_0_height_0_subtile_0__pin_O_9_
*152 top_right_grid_left_width_0_height_0_subtile_0__pin_inpad_0_
*153 top_right_grid_left_width_0_height_0_subtile_1__pin_inpad_0_
*154 top_right_grid_left_width_0_height_0_subtile_2__pin_inpad_0_
*155 top_right_grid_left_width_0_height_0_subtile_3__pin_inpad_0_
*156 top_width_0_height_0_subtile_0__pin_inpad_0_
*157 top_width_0_height_0_subtile_1__pin_inpad_0_
*158 top_width_0_height_0_subtile_2__pin_inpad_0_
*159 top_width_0_height_0_subtile_3__pin_inpad_0_
*160 cbx_8__0_\.bottom_grid_top_width_0_height_0_subtile_0__pin_outpad_0_
*161 cbx_8__0_\.bottom_grid_top_width_0_height_0_subtile_1__pin_outpad_0_
*162 cbx_8__0_\.bottom_grid_top_width_0_height_0_subtile_2__pin_outpad_0_
*163 cbx_8__0_\.bottom_grid_top_width_0_height_0_subtile_3__pin_outpad_0_
*164 cbx_8__0_\.cbx_8__0_\.ccff_head
*165 cbx_8__0_\.cbx_8__0_\.mem_top_ipin_0\.ccff_tail
*166 cbx_8__0_\.cbx_8__0_\.mem_top_ipin_0\.mem_out\[0\]
*167 cbx_8__0_\.cbx_8__0_\.mem_top_ipin_0\.mem_out\[1\]
*168 cbx_8__0_\.cbx_8__0_\.mem_top_ipin_0\.mem_out\[2\]
*169 cbx_8__0_\.cbx_8__0_\.mem_top_ipin_1\.ccff_tail
*170 cbx_8__0_\.cbx_8__0_\.mem_top_ipin_1\.mem_out\[0\]
*171 cbx_8__0_\.cbx_8__0_\.mem_top_ipin_1\.mem_out\[1\]
*172 cbx_8__0_\.cbx_8__0_\.mem_top_ipin_1\.mem_out\[2\]
*173 cbx_8__0_\.cbx_8__0_\.mem_top_ipin_2\.ccff_tail
*174 cbx_8__0_\.cbx_8__0_\.mem_top_ipin_2\.mem_out\[0\]
*175 cbx_8__0_\.cbx_8__0_\.mem_top_ipin_2\.mem_out\[1\]
*176 cbx_8__0_\.cbx_8__0_\.mem_top_ipin_2\.mem_out\[2\]
*177 cbx_8__0_\.cbx_8__0_\.mem_top_ipin_3\.mem_out\[0\]
*178 cbx_8__0_\.cbx_8__0_\.mem_top_ipin_3\.mem_out\[1\]
*179 cbx_8__0_\.cbx_8__0_\.mem_top_ipin_3\.mem_out\[2\]
*180 cbx_8__0_\.cbx_8__0_\.mux_top_ipin_0\.sky130_fd_sc_hd__mux2_1_0_X
*181 cbx_8__0_\.cbx_8__0_\.mux_top_ipin_0\.sky130_fd_sc_hd__mux2_1_10_X
*182 cbx_8__0_\.cbx_8__0_\.mux_top_ipin_0\.sky130_fd_sc_hd__mux2_1_11_X
*183 cbx_8__0_\.cbx_8__0_\.mux_top_ipin_0\.sky130_fd_sc_hd__mux2_1_1_X
*184 cbx_8__0_\.cbx_8__0_\.mux_top_ipin_0\.sky130_fd_sc_hd__mux2_1_2_X
*185 cbx_8__0_\.cbx_8__0_\.mux_top_ipin_0\.sky130_fd_sc_hd__mux2_1_3_X
*186 cbx_8__0_\.cbx_8__0_\.mux_top_ipin_0\.sky130_fd_sc_hd__mux2_1_4_X
*187 cbx_8__0_\.cbx_8__0_\.mux_top_ipin_0\.sky130_fd_sc_hd__mux2_1_5_X
*188 cbx_8__0_\.cbx_8__0_\.mux_top_ipin_0\.sky130_fd_sc_hd__mux2_1_6_X
*189 cbx_8__0_\.cbx_8__0_\.mux_top_ipin_0\.sky130_fd_sc_hd__mux2_1_7_X
*190 cbx_8__0_\.cbx_8__0_\.mux_top_ipin_0\.sky130_fd_sc_hd__mux2_1_8_X
*191 cbx_8__0_\.cbx_8__0_\.mux_top_ipin_0\.sky130_fd_sc_hd__mux2_1_9_X
*192 cbx_8__0_\.cbx_8__0_\.mux_top_ipin_1\.sky130_fd_sc_hd__mux2_1_0_X
*193 cbx_8__0_\.cbx_8__0_\.mux_top_ipin_1\.sky130_fd_sc_hd__mux2_1_10_X
*194 cbx_8__0_\.cbx_8__0_\.mux_top_ipin_1\.sky130_fd_sc_hd__mux2_1_11_X
*195 cbx_8__0_\.cbx_8__0_\.mux_top_ipin_1\.sky130_fd_sc_hd__mux2_1_1_X
*196 cbx_8__0_\.cbx_8__0_\.mux_top_ipin_1\.sky130_fd_sc_hd__mux2_1_2_X
*197 cbx_8__0_\.cbx_8__0_\.mux_top_ipin_1\.sky130_fd_sc_hd__mux2_1_3_X
*198 cbx_8__0_\.cbx_8__0_\.mux_top_ipin_1\.sky130_fd_sc_hd__mux2_1_4_X
*199 cbx_8__0_\.cbx_8__0_\.mux_top_ipin_1\.sky130_fd_sc_hd__mux2_1_5_X
*200 cbx_8__0_\.cbx_8__0_\.mux_top_ipin_1\.sky130_fd_sc_hd__mux2_1_6_X
*201 cbx_8__0_\.cbx_8__0_\.mux_top_ipin_1\.sky130_fd_sc_hd__mux2_1_7_X
*202 cbx_8__0_\.cbx_8__0_\.mux_top_ipin_1\.sky130_fd_sc_hd__mux2_1_8_X
*203 cbx_8__0_\.cbx_8__0_\.mux_top_ipin_1\.sky130_fd_sc_hd__mux2_1_9_X
*204 cbx_8__0_\.cbx_8__0_\.mux_top_ipin_2\.sky130_fd_sc_hd__mux2_1_0_X
*205 cbx_8__0_\.cbx_8__0_\.mux_top_ipin_2\.sky130_fd_sc_hd__mux2_1_10_X
*206 cbx_8__0_\.cbx_8__0_\.mux_top_ipin_2\.sky130_fd_sc_hd__mux2_1_11_X
*207 cbx_8__0_\.cbx_8__0_\.mux_top_ipin_2\.sky130_fd_sc_hd__mux2_1_1_X
*208 cbx_8__0_\.cbx_8__0_\.mux_top_ipin_2\.sky130_fd_sc_hd__mux2_1_2_X
*209 cbx_8__0_\.cbx_8__0_\.mux_top_ipin_2\.sky130_fd_sc_hd__mux2_1_3_X
*210 cbx_8__0_\.cbx_8__0_\.mux_top_ipin_2\.sky130_fd_sc_hd__mux2_1_4_X
*211 cbx_8__0_\.cbx_8__0_\.mux_top_ipin_2\.sky130_fd_sc_hd__mux2_1_5_X
*212 cbx_8__0_\.cbx_8__0_\.mux_top_ipin_2\.sky130_fd_sc_hd__mux2_1_6_X
*213 cbx_8__0_\.cbx_8__0_\.mux_top_ipin_2\.sky130_fd_sc_hd__mux2_1_7_X
*214 cbx_8__0_\.cbx_8__0_\.mux_top_ipin_2\.sky130_fd_sc_hd__mux2_1_8_X
*215 cbx_8__0_\.cbx_8__0_\.mux_top_ipin_2\.sky130_fd_sc_hd__mux2_1_9_X
*216 cbx_8__0_\.cbx_8__0_\.mux_top_ipin_3\.sky130_fd_sc_hd__mux2_1_0_X
*217 cbx_8__0_\.cbx_8__0_\.mux_top_ipin_3\.sky130_fd_sc_hd__mux2_1_10_X
*218 cbx_8__0_\.cbx_8__0_\.mux_top_ipin_3\.sky130_fd_sc_hd__mux2_1_11_X
*219 cbx_8__0_\.cbx_8__0_\.mux_top_ipin_3\.sky130_fd_sc_hd__mux2_1_1_X
*220 cbx_8__0_\.cbx_8__0_\.mux_top_ipin_3\.sky130_fd_sc_hd__mux2_1_2_X
*221 cbx_8__0_\.cbx_8__0_\.mux_top_ipin_3\.sky130_fd_sc_hd__mux2_1_3_X
*222 cbx_8__0_\.cbx_8__0_\.mux_top_ipin_3\.sky130_fd_sc_hd__mux2_1_4_X
*223 cbx_8__0_\.cbx_8__0_\.mux_top_ipin_3\.sky130_fd_sc_hd__mux2_1_5_X
*224 cbx_8__0_\.cbx_8__0_\.mux_top_ipin_3\.sky130_fd_sc_hd__mux2_1_6_X
*225 cbx_8__0_\.cbx_8__0_\.mux_top_ipin_3\.sky130_fd_sc_hd__mux2_1_7_X
*226 cbx_8__0_\.cbx_8__0_\.mux_top_ipin_3\.sky130_fd_sc_hd__mux2_1_8_X
*227 cbx_8__0_\.cbx_8__0_\.mux_top_ipin_3\.sky130_fd_sc_hd__mux2_1_9_X
*228 cbx_8__0_\.grid_io_bottom_bottom_8__0_\.logical_tile_io_mode_io__0\.ccff_tail
*229 cbx_8__0_\.grid_io_bottom_bottom_8__0_\.logical_tile_io_mode_io__0\.gfpga_pad_io_soc_dir
*230 cbx_8__0_\.grid_io_bottom_bottom_8__0_\.logical_tile_io_mode_io__0\.gfpga_pad_io_soc_out
*231 cbx_8__0_\.grid_io_bottom_bottom_8__0_\.logical_tile_io_mode_io__0\.logical_tile_io_mode_physical__iopad_0\.io_0_\.SOC_DIR_N
*232 cbx_8__0_\.grid_io_bottom_bottom_8__0_\.logical_tile_io_mode_io__1\.ccff_tail
*233 cbx_8__0_\.grid_io_bottom_bottom_8__0_\.logical_tile_io_mode_io__1\.gfpga_pad_io_soc_dir
*234 cbx_8__0_\.grid_io_bottom_bottom_8__0_\.logical_tile_io_mode_io__1\.gfpga_pad_io_soc_out
*235 cbx_8__0_\.grid_io_bottom_bottom_8__0_\.logical_tile_io_mode_io__1\.logical_tile_io_mode_physical__iopad_0\.io_0_\.SOC_DIR_N
*236 cbx_8__0_\.grid_io_bottom_bottom_8__0_\.logical_tile_io_mode_io__2\.ccff_tail
*237 cbx_8__0_\.grid_io_bottom_bottom_8__0_\.logical_tile_io_mode_io__2\.gfpga_pad_io_soc_dir
*238 cbx_8__0_\.grid_io_bottom_bottom_8__0_\.logical_tile_io_mode_io__2\.gfpga_pad_io_soc_out
*239 cbx_8__0_\.grid_io_bottom_bottom_8__0_\.logical_tile_io_mode_io__2\.logical_tile_io_mode_physical__iopad_0\.io_0_\.SOC_DIR_N
*240 cbx_8__0_\.grid_io_bottom_bottom_8__0_\.logical_tile_io_mode_io__3\.gfpga_pad_io_soc_dir
*241 cbx_8__0_\.grid_io_bottom_bottom_8__0_\.logical_tile_io_mode_io__3\.gfpga_pad_io_soc_out
*242 cbx_8__0_\.grid_io_bottom_bottom_8__0_\.logical_tile_io_mode_io__3\.logical_tile_io_mode_physical__iopad_0\.io_0_\.SOC_DIR_N
*243 clknet_0_prog_clk
*244 clknet_4_0_0_prog_clk
*245 clknet_4_10_0_prog_clk
*246 clknet_4_11_0_prog_clk
*247 clknet_4_12_0_prog_clk
*248 clknet_4_13_0_prog_clk
*249 clknet_4_14_0_prog_clk
*250 clknet_4_15_0_prog_clk
*251 clknet_4_1_0_prog_clk
*252 clknet_4_2_0_prog_clk
*253 clknet_4_3_0_prog_clk
*254 clknet_4_4_0_prog_clk
*255 clknet_4_5_0_prog_clk
*256 clknet_4_6_0_prog_clk
*257 clknet_4_7_0_prog_clk
*258 clknet_4_8_0_prog_clk
*259 clknet_4_9_0_prog_clk
*260 net1
*261 net10
*262 net100
*263 net101
*264 net102
*265 net103
*266 net104
*267 net105
*268 net106
*269 net107
*270 net108
*271 net109
*272 net11
*273 net110
*274 net111
*275 net112
*276 net113
*277 net114
*278 net115
*279 net116
*280 net117
*281 net118
*282 net119
*283 net12
*284 net120
*285 net121
*286 net122
*287 net123
*288 net124
*289 net125
*290 net126
*291 net127
*292 net128
*293 net129
*294 net13
*295 net130
*296 net131
*297 net132
*298 net133
*299 net134
*300 net135
*301 net136
*302 net137
*303 net138
*304 net139
*305 net14
*306 net140
*307 net141
*308 net142
*309 net143
*310 net144
*311 net145
*312 net146
*313 net147
*314 net148
*315 net149
*316 net15
*317 net150
*318 net151
*319 net152
*320 net153
*321 net154
*322 net155
*323 net156
*324 net157
*325 net158
*326 net159
*327 net16
*328 net160
*329 net161
*330 net162
*331 net163
*332 net164
*333 net165
*334 net166
*335 net167
*336 net168
*337 net169
*338 net17
*339 net170
*340 net171
*341 net172
*342 net173
*343 net174
*344 net175
*345 net176
*346 net177
*347 net178
*348 net179
*349 net18
*350 net180
*351 net181
*352 net182
*353 net183
*354 net184
*355 net185
*356 net186
*357 net187
*358 net188
*359 net189
*360 net19
*361 net190
*362 net191
*363 net192
*364 net193
*365 net194
*366 net195
*367 net196
*368 net197
*369 net198
*370 net199
*371 net2
*372 net20
*373 net200
*374 net201
*375 net202
*376 net203
*377 net204
*378 net205
*379 net206
*380 net207
*381 net208
*382 net209
*383 net21
*384 net210
*385 net211
*386 net22
*387 net23
*388 net24
*389 net25
*390 net26
*391 net27
*392 net28
*393 net29
*394 net3
*395 net30
*396 net31
*397 net32
*398 net33
*399 net34
*400 net35
*401 net36
*402 net37
*403 net38
*404 net39
*405 net4
*406 net40
*407 net41
*408 net42
*409 net43
*410 net44
*411 net45
*412 net46
*413 net47
*414 net48
*415 net49
*416 net5
*417 net50
*418 net51
*419 net52
*420 net53
*421 net54
*422 net55
*423 net56
*424 net57
*425 net58
*426 net59
*427 net6
*428 net60
*429 net61
*430 net62
*431 net63
*432 net64
*433 net65
*434 net66
*435 net67
*436 net68
*437 net69
*438 net7
*439 net70
*440 net71
*441 net72
*442 net73
*443 net74
*444 net75
*445 net76
*446 net77
*447 net78
*448 net79
*449 net8
*450 net80
*451 net81
*452 net82
*453 net83
*454 net84
*455 net85
*456 net86
*457 net87
*458 net88
*459 net89
*460 net9
*461 net90
*462 net91
*463 net92
*464 net93
*465 net94
*466 net95
*467 net96
*468 net97
*469 net98
*470 net99
*471 sb_8__0_\.mem_left_track_1\.ccff_head
*472 sb_8__0_\.mem_left_track_1\.ccff_tail
*473 sb_8__0_\.mem_left_track_1\.mem_out\[0\]
*474 sb_8__0_\.mem_left_track_11\.ccff_head
*475 sb_8__0_\.mem_left_track_11\.ccff_tail
*476 sb_8__0_\.mem_left_track_11\.mem_out\[0\]
*477 sb_8__0_\.mem_left_track_13\.ccff_tail
*478 sb_8__0_\.mem_left_track_13\.mem_out\[0\]
*479 sb_8__0_\.mem_left_track_15\.ccff_tail
*480 sb_8__0_\.mem_left_track_15\.mem_out\[0\]
*481 sb_8__0_\.mem_left_track_17\.ccff_tail
*482 sb_8__0_\.mem_left_track_17\.mem_out\[0\]
*483 sb_8__0_\.mem_left_track_19\.ccff_tail
*484 sb_8__0_\.mem_left_track_19\.mem_out\[0\]
*485 sb_8__0_\.mem_left_track_29\.ccff_tail
*486 sb_8__0_\.mem_left_track_29\.mem_out\[0\]
*487 sb_8__0_\.mem_left_track_3\.ccff_tail
*488 sb_8__0_\.mem_left_track_3\.mem_out\[0\]
*489 sb_8__0_\.mem_left_track_31\.ccff_tail
*490 sb_8__0_\.mem_left_track_31\.mem_out\[0\]
*491 sb_8__0_\.mem_left_track_33\.ccff_tail
*492 sb_8__0_\.mem_left_track_33\.mem_out\[0\]
*493 sb_8__0_\.mem_left_track_35\.ccff_tail
*494 sb_8__0_\.mem_left_track_35\.mem_out\[0\]
*495 sb_8__0_\.mem_left_track_45\.ccff_tail
*496 sb_8__0_\.mem_left_track_45\.mem_out\[0\]
*497 sb_8__0_\.mem_left_track_47\.ccff_tail
*498 sb_8__0_\.mem_left_track_47\.mem_out\[0\]
*499 sb_8__0_\.mem_left_track_49\.ccff_tail
*500 sb_8__0_\.mem_left_track_49\.mem_out\[0\]
*501 sb_8__0_\.mem_left_track_5\.ccff_tail
*502 sb_8__0_\.mem_left_track_5\.mem_out\[0\]
*503 sb_8__0_\.mem_left_track_51\.mem_out\[0\]
*504 sb_8__0_\.mem_left_track_7\.ccff_tail
*505 sb_8__0_\.mem_left_track_7\.mem_out\[0\]
*506 sb_8__0_\.mem_left_track_9\.mem_out\[0\]
*507 sb_8__0_\.mem_top_track_0\.ccff_tail
*508 sb_8__0_\.mem_top_track_0\.mem_out\[0\]
*509 sb_8__0_\.mem_top_track_0\.mem_out\[1\]
*510 sb_8__0_\.mem_top_track_10\.ccff_head
*511 sb_8__0_\.mem_top_track_10\.ccff_tail
*512 sb_8__0_\.mem_top_track_10\.mem_out\[0\]
*513 sb_8__0_\.mem_top_track_10\.mem_out\[1\]
*514 sb_8__0_\.mem_top_track_12\.ccff_tail
*515 sb_8__0_\.mem_top_track_12\.mem_out\[0\]
*516 sb_8__0_\.mem_top_track_14\.ccff_tail
*517 sb_8__0_\.mem_top_track_14\.mem_out\[0\]
*518 sb_8__0_\.mem_top_track_16\.ccff_tail
*519 sb_8__0_\.mem_top_track_16\.mem_out\[0\]
*520 sb_8__0_\.mem_top_track_18\.ccff_tail
*521 sb_8__0_\.mem_top_track_18\.mem_out\[0\]
*522 sb_8__0_\.mem_top_track_2\.ccff_tail
*523 sb_8__0_\.mem_top_track_2\.mem_out\[0\]
*524 sb_8__0_\.mem_top_track_2\.mem_out\[1\]
*525 sb_8__0_\.mem_top_track_20\.ccff_tail
*526 sb_8__0_\.mem_top_track_20\.mem_out\[0\]
*527 sb_8__0_\.mem_top_track_22\.ccff_tail
*528 sb_8__0_\.mem_top_track_22\.mem_out\[0\]
*529 sb_8__0_\.mem_top_track_24\.ccff_tail
*530 sb_8__0_\.mem_top_track_24\.mem_out\[0\]
*531 sb_8__0_\.mem_top_track_26\.ccff_tail
*532 sb_8__0_\.mem_top_track_26\.mem_out\[0\]
*533 sb_8__0_\.mem_top_track_28\.ccff_tail
*534 sb_8__0_\.mem_top_track_28\.mem_out\[0\]
*535 sb_8__0_\.mem_top_track_30\.ccff_tail
*536 sb_8__0_\.mem_top_track_30\.mem_out\[0\]
*537 sb_8__0_\.mem_top_track_32\.ccff_tail
*538 sb_8__0_\.mem_top_track_32\.mem_out\[0\]
*539 sb_8__0_\.mem_top_track_34\.ccff_tail
*540 sb_8__0_\.mem_top_track_34\.mem_out\[0\]
*541 sb_8__0_\.mem_top_track_36\.ccff_tail
*542 sb_8__0_\.mem_top_track_36\.mem_out\[0\]
*543 sb_8__0_\.mem_top_track_38\.ccff_tail
*544 sb_8__0_\.mem_top_track_38\.mem_out\[0\]
*545 sb_8__0_\.mem_top_track_4\.ccff_tail
*546 sb_8__0_\.mem_top_track_4\.mem_out\[0\]
*547 sb_8__0_\.mem_top_track_4\.mem_out\[1\]
*548 sb_8__0_\.mem_top_track_40\.ccff_tail
*549 sb_8__0_\.mem_top_track_40\.mem_out\[0\]
*550 sb_8__0_\.mem_top_track_42\.ccff_tail
*551 sb_8__0_\.mem_top_track_42\.mem_out\[0\]
*552 sb_8__0_\.mem_top_track_44\.ccff_tail
*553 sb_8__0_\.mem_top_track_44\.mem_out\[0\]
*554 sb_8__0_\.mem_top_track_46\.ccff_tail
*555 sb_8__0_\.mem_top_track_46\.mem_out\[0\]
*556 sb_8__0_\.mem_top_track_48\.ccff_tail
*557 sb_8__0_\.mem_top_track_48\.mem_out\[0\]
*558 sb_8__0_\.mem_top_track_50\.mem_out\[0\]
*559 sb_8__0_\.mem_top_track_6\.ccff_tail
*560 sb_8__0_\.mem_top_track_6\.mem_out\[0\]
*561 sb_8__0_\.mem_top_track_6\.mem_out\[1\]
*562 sb_8__0_\.mem_top_track_8\.mem_out\[0\]
*563 sb_8__0_\.mem_top_track_8\.mem_out\[1\]
*564 sb_8__0_\.mux_left_track_1\.out
*565 sb_8__0_\.mux_left_track_1\.sky130_fd_sc_hd__mux2_1_0_X
*566 sb_8__0_\.mux_left_track_1\.sky130_fd_sc_hd__mux2_1_1_X
*567 sb_8__0_\.mux_left_track_1\.sky130_fd_sc_hd__mux2_1_2_X
*568 sb_8__0_\.mux_left_track_11\.out
*569 sb_8__0_\.mux_left_track_11\.sky130_fd_sc_hd__mux2_1_0_X
*570 sb_8__0_\.mux_left_track_11\.sky130_fd_sc_hd__mux2_1_1_X
*571 sb_8__0_\.mux_left_track_13\.out
*572 sb_8__0_\.mux_left_track_13\.sky130_fd_sc_hd__mux2_1_0_X
*573 sb_8__0_\.mux_left_track_13\.sky130_fd_sc_hd__mux2_1_1_X
*574 sb_8__0_\.mux_left_track_15\.out
*575 sb_8__0_\.mux_left_track_15\.sky130_fd_sc_hd__mux2_1_0_X
*576 sb_8__0_\.mux_left_track_15\.sky130_fd_sc_hd__mux2_1_1_X
*577 sb_8__0_\.mux_left_track_17\.out
*578 sb_8__0_\.mux_left_track_17\.sky130_fd_sc_hd__mux2_1_0_X
*579 sb_8__0_\.mux_left_track_17\.sky130_fd_sc_hd__mux2_1_1_X
*580 sb_8__0_\.mux_left_track_19\.out
*581 sb_8__0_\.mux_left_track_19\.sky130_fd_sc_hd__mux2_1_0_X
*582 sb_8__0_\.mux_left_track_19\.sky130_fd_sc_hd__mux2_1_1_X
*583 sb_8__0_\.mux_left_track_29\.out
*584 sb_8__0_\.mux_left_track_29\.sky130_fd_sc_hd__mux2_1_0_X
*585 sb_8__0_\.mux_left_track_29\.sky130_fd_sc_hd__mux2_1_1_X
*586 sb_8__0_\.mux_left_track_3\.out
*587 sb_8__0_\.mux_left_track_3\.sky130_fd_sc_hd__mux2_1_0_X
*588 sb_8__0_\.mux_left_track_3\.sky130_fd_sc_hd__mux2_1_1_X
*589 sb_8__0_\.mux_left_track_31\.out
*590 sb_8__0_\.mux_left_track_31\.sky130_fd_sc_hd__mux2_1_0_X
*591 sb_8__0_\.mux_left_track_31\.sky130_fd_sc_hd__mux2_1_1_X
*592 sb_8__0_\.mux_left_track_33\.out
*593 sb_8__0_\.mux_left_track_33\.sky130_fd_sc_hd__mux2_1_0_X
*594 sb_8__0_\.mux_left_track_33\.sky130_fd_sc_hd__mux2_1_1_X
*595 sb_8__0_\.mux_left_track_35\.out
*596 sb_8__0_\.mux_left_track_35\.sky130_fd_sc_hd__mux2_1_0_X
*597 sb_8__0_\.mux_left_track_35\.sky130_fd_sc_hd__mux2_1_1_X
*598 sb_8__0_\.mux_left_track_45\.out
*599 sb_8__0_\.mux_left_track_45\.sky130_fd_sc_hd__mux2_1_0_X
*600 sb_8__0_\.mux_left_track_45\.sky130_fd_sc_hd__mux2_1_1_X
*601 sb_8__0_\.mux_left_track_47\.out
*602 sb_8__0_\.mux_left_track_47\.sky130_fd_sc_hd__mux2_1_0_X
*603 sb_8__0_\.mux_left_track_47\.sky130_fd_sc_hd__mux2_1_1_X
*604 sb_8__0_\.mux_left_track_49\.out
*605 sb_8__0_\.mux_left_track_49\.sky130_fd_sc_hd__mux2_1_0_X
*606 sb_8__0_\.mux_left_track_49\.sky130_fd_sc_hd__mux2_1_1_X
*607 sb_8__0_\.mux_left_track_5\.out
*608 sb_8__0_\.mux_left_track_5\.sky130_fd_sc_hd__mux2_1_0_X
*609 sb_8__0_\.mux_left_track_5\.sky130_fd_sc_hd__mux2_1_1_X
*610 sb_8__0_\.mux_left_track_51\.out
*611 sb_8__0_\.mux_left_track_51\.sky130_fd_sc_hd__mux2_1_0_X
*612 sb_8__0_\.mux_left_track_51\.sky130_fd_sc_hd__mux2_1_1_X
*613 sb_8__0_\.mux_left_track_7\.out
*614 sb_8__0_\.mux_left_track_7\.sky130_fd_sc_hd__mux2_1_0_X
*615 sb_8__0_\.mux_left_track_7\.sky130_fd_sc_hd__mux2_1_1_X
*616 sb_8__0_\.mux_left_track_7\.sky130_fd_sc_hd__mux2_1_2_X
*617 sb_8__0_\.mux_left_track_9\.out
*618 sb_8__0_\.mux_left_track_9\.sky130_fd_sc_hd__mux2_1_0_X
*619 sb_8__0_\.mux_left_track_9\.sky130_fd_sc_hd__mux2_1_1_X
*620 sb_8__0_\.mux_top_track_0\.out
*621 sb_8__0_\.mux_top_track_0\.sky130_fd_sc_hd__mux2_1_0_X
*622 sb_8__0_\.mux_top_track_0\.sky130_fd_sc_hd__mux2_1_1_X
*623 sb_8__0_\.mux_top_track_0\.sky130_fd_sc_hd__mux2_1_2_X
*624 sb_8__0_\.mux_top_track_0\.sky130_fd_sc_hd__mux2_1_3_X
*625 sb_8__0_\.mux_top_track_0\.sky130_fd_sc_hd__mux2_1_4_X
*626 sb_8__0_\.mux_top_track_10\.out
*627 sb_8__0_\.mux_top_track_10\.sky130_fd_sc_hd__mux2_1_0_X
*628 sb_8__0_\.mux_top_track_10\.sky130_fd_sc_hd__mux2_1_1_X
*629 sb_8__0_\.mux_top_track_10\.sky130_fd_sc_hd__mux2_1_2_X
*630 sb_8__0_\.mux_top_track_10\.sky130_fd_sc_hd__mux2_1_3_X
*631 sb_8__0_\.mux_top_track_10\.sky130_fd_sc_hd__mux2_1_4_X
*632 sb_8__0_\.mux_top_track_12\.out
*633 sb_8__0_\.mux_top_track_12\.sky130_fd_sc_hd__mux2_1_0_X
*634 sb_8__0_\.mux_top_track_12\.sky130_fd_sc_hd__mux2_1_1_X
*635 sb_8__0_\.mux_top_track_12\.sky130_fd_sc_hd__mux2_1_2_X
*636 sb_8__0_\.mux_top_track_14\.out
*637 sb_8__0_\.mux_top_track_14\.sky130_fd_sc_hd__mux2_1_0_X
*638 sb_8__0_\.mux_top_track_14\.sky130_fd_sc_hd__mux2_1_1_X
*639 sb_8__0_\.mux_top_track_14\.sky130_fd_sc_hd__mux2_1_2_X
*640 sb_8__0_\.mux_top_track_16\.out
*641 sb_8__0_\.mux_top_track_16\.sky130_fd_sc_hd__mux2_1_0_X
*642 sb_8__0_\.mux_top_track_16\.sky130_fd_sc_hd__mux2_1_1_X
*643 sb_8__0_\.mux_top_track_16\.sky130_fd_sc_hd__mux2_1_2_X
*644 sb_8__0_\.mux_top_track_18\.out
*645 sb_8__0_\.mux_top_track_18\.sky130_fd_sc_hd__mux2_1_0_X
*646 sb_8__0_\.mux_top_track_18\.sky130_fd_sc_hd__mux2_1_1_X
*647 sb_8__0_\.mux_top_track_18\.sky130_fd_sc_hd__mux2_1_2_X
*648 sb_8__0_\.mux_top_track_2\.out
*649 sb_8__0_\.mux_top_track_2\.sky130_fd_sc_hd__mux2_1_0_X
*650 sb_8__0_\.mux_top_track_2\.sky130_fd_sc_hd__mux2_1_1_X
*651 sb_8__0_\.mux_top_track_2\.sky130_fd_sc_hd__mux2_1_2_X
*652 sb_8__0_\.mux_top_track_2\.sky130_fd_sc_hd__mux2_1_3_X
*653 sb_8__0_\.mux_top_track_2\.sky130_fd_sc_hd__mux2_1_4_X
*654 sb_8__0_\.mux_top_track_20\.out
*655 sb_8__0_\.mux_top_track_20\.sky130_fd_sc_hd__mux2_1_0_X
*656 sb_8__0_\.mux_top_track_20\.sky130_fd_sc_hd__mux2_1_1_X
*657 sb_8__0_\.mux_top_track_22\.out
*658 sb_8__0_\.mux_top_track_22\.sky130_fd_sc_hd__mux2_1_0_X
*659 sb_8__0_\.mux_top_track_22\.sky130_fd_sc_hd__mux2_1_1_X
*660 sb_8__0_\.mux_top_track_24\.out
*661 sb_8__0_\.mux_top_track_24\.sky130_fd_sc_hd__mux2_1_0_X
*662 sb_8__0_\.mux_top_track_24\.sky130_fd_sc_hd__mux2_1_1_X
*663 sb_8__0_\.mux_top_track_26\.out
*664 sb_8__0_\.mux_top_track_26\.sky130_fd_sc_hd__mux2_1_0_X
*665 sb_8__0_\.mux_top_track_26\.sky130_fd_sc_hd__mux2_1_1_X
*666 sb_8__0_\.mux_top_track_28\.out
*667 sb_8__0_\.mux_top_track_28\.sky130_fd_sc_hd__mux2_1_0_X
*668 sb_8__0_\.mux_top_track_28\.sky130_fd_sc_hd__mux2_1_1_X
*669 sb_8__0_\.mux_top_track_30\.out
*670 sb_8__0_\.mux_top_track_30\.sky130_fd_sc_hd__mux2_1_0_X
*671 sb_8__0_\.mux_top_track_30\.sky130_fd_sc_hd__mux2_1_1_X
*672 sb_8__0_\.mux_top_track_32\.out
*673 sb_8__0_\.mux_top_track_32\.sky130_fd_sc_hd__mux2_1_0_X
*674 sb_8__0_\.mux_top_track_32\.sky130_fd_sc_hd__mux2_1_1_X
*675 sb_8__0_\.mux_top_track_34\.out
*676 sb_8__0_\.mux_top_track_34\.sky130_fd_sc_hd__mux2_1_0_X
*677 sb_8__0_\.mux_top_track_34\.sky130_fd_sc_hd__mux2_1_1_X
*678 sb_8__0_\.mux_top_track_36\.out
*679 sb_8__0_\.mux_top_track_36\.sky130_fd_sc_hd__mux2_1_0_X
*680 sb_8__0_\.mux_top_track_36\.sky130_fd_sc_hd__mux2_1_1_X
*681 sb_8__0_\.mux_top_track_38\.out
*682 sb_8__0_\.mux_top_track_38\.sky130_fd_sc_hd__mux2_1_0_X
*683 sb_8__0_\.mux_top_track_38\.sky130_fd_sc_hd__mux2_1_1_X
*684 sb_8__0_\.mux_top_track_4\.out
*685 sb_8__0_\.mux_top_track_4\.sky130_fd_sc_hd__mux2_1_0_X
*686 sb_8__0_\.mux_top_track_4\.sky130_fd_sc_hd__mux2_1_1_X
*687 sb_8__0_\.mux_top_track_4\.sky130_fd_sc_hd__mux2_1_2_X
*688 sb_8__0_\.mux_top_track_4\.sky130_fd_sc_hd__mux2_1_3_X
*689 sb_8__0_\.mux_top_track_4\.sky130_fd_sc_hd__mux2_1_4_X
*690 sb_8__0_\.mux_top_track_40\.out
*691 sb_8__0_\.mux_top_track_40\.sky130_fd_sc_hd__mux2_1_0_X
*692 sb_8__0_\.mux_top_track_40\.sky130_fd_sc_hd__mux2_1_1_X
*693 sb_8__0_\.mux_top_track_42\.out
*694 sb_8__0_\.mux_top_track_42\.sky130_fd_sc_hd__mux2_1_0_X
*695 sb_8__0_\.mux_top_track_42\.sky130_fd_sc_hd__mux2_1_1_X
*696 sb_8__0_\.mux_top_track_44\.out
*697 sb_8__0_\.mux_top_track_44\.sky130_fd_sc_hd__mux2_1_0_X
*698 sb_8__0_\.mux_top_track_44\.sky130_fd_sc_hd__mux2_1_1_X
*699 sb_8__0_\.mux_top_track_44\.sky130_fd_sc_hd__mux2_1_2_X
*700 sb_8__0_\.mux_top_track_46\.out
*701 sb_8__0_\.mux_top_track_46\.sky130_fd_sc_hd__mux2_1_0_X
*702 sb_8__0_\.mux_top_track_46\.sky130_fd_sc_hd__mux2_1_1_X
*703 sb_8__0_\.mux_top_track_46\.sky130_fd_sc_hd__mux2_1_2_X
*704 sb_8__0_\.mux_top_track_48\.out
*705 sb_8__0_\.mux_top_track_48\.sky130_fd_sc_hd__mux2_1_0_X
*706 sb_8__0_\.mux_top_track_48\.sky130_fd_sc_hd__mux2_1_1_X
*707 sb_8__0_\.mux_top_track_48\.sky130_fd_sc_hd__mux2_1_2_X
*708 sb_8__0_\.mux_top_track_50\.out
*709 sb_8__0_\.mux_top_track_50\.sky130_fd_sc_hd__mux2_1_0_X
*710 sb_8__0_\.mux_top_track_50\.sky130_fd_sc_hd__mux2_1_1_X
*711 sb_8__0_\.mux_top_track_50\.sky130_fd_sc_hd__mux2_1_2_X
*712 sb_8__0_\.mux_top_track_6\.out
*713 sb_8__0_\.mux_top_track_6\.sky130_fd_sc_hd__mux2_1_0_X
*714 sb_8__0_\.mux_top_track_6\.sky130_fd_sc_hd__mux2_1_1_X
*715 sb_8__0_\.mux_top_track_6\.sky130_fd_sc_hd__mux2_1_2_X
*716 sb_8__0_\.mux_top_track_6\.sky130_fd_sc_hd__mux2_1_3_X
*717 sb_8__0_\.mux_top_track_6\.sky130_fd_sc_hd__mux2_1_4_X
*718 sb_8__0_\.mux_top_track_8\.out
*719 sb_8__0_\.mux_top_track_8\.sky130_fd_sc_hd__mux2_1_0_X
*720 sb_8__0_\.mux_top_track_8\.sky130_fd_sc_hd__mux2_1_1_X
*721 sb_8__0_\.mux_top_track_8\.sky130_fd_sc_hd__mux2_1_2_X
*722 sb_8__0_\.mux_top_track_8\.sky130_fd_sc_hd__mux2_1_3_X
*723 sb_8__0_\.mux_top_track_8\.sky130_fd_sc_hd__mux2_1_4_X
*724 ANTENNA_1
*725 ANTENNA_10
*726 ANTENNA_11
*727 ANTENNA_12
*728 ANTENNA_13
*729 ANTENNA_14
*730 ANTENNA_15
*731 ANTENNA_16
*732 ANTENNA_17
*733 ANTENNA_18
*734 ANTENNA_19
*735 ANTENNA_2
*736 ANTENNA_3
*737 ANTENNA_4
*738 ANTENNA_5
*739 ANTENNA_6
*740 ANTENNA_7
*741 ANTENNA_8
*742 ANTENNA_9
*743 ANTENNA__096__A
*744 ANTENNA__097__A
*745 ANTENNA__098__A
*746 ANTENNA__099__A
*747 ANTENNA__101__A
*748 ANTENNA__104__A
*749 ANTENNA__105__A
*750 ANTENNA__106__A
*751 ANTENNA__107__A
*752 ANTENNA__112__A
*753 ANTENNA__113__A
*754 ANTENNA__114__A
*755 ANTENNA__115__A
*756 ANTENNA__116__A
*757 ANTENNA__118__A
*758 ANTENNA__119__A
*759 ANTENNA__121__A
*760 ANTENNA__123__A
*761 ANTENNA__124__A
*762 ANTENNA__125__A
*763 ANTENNA__127__A
*764 ANTENNA__129__A
*765 ANTENNA__131__A
*766 ANTENNA__132__A
*767 ANTENNA__133__A
*768 ANTENNA__141__A
*769 ANTENNA__142__A
*770 ANTENNA__143__A
*771 ANTENNA__144__A
*772 ANTENNA__145__A
*773 ANTENNA__146__A
*774 ANTENNA__147__A
*775 ANTENNA__148__A
*776 ANTENNA__149__A
*777 ANTENNA__155__A
*778 ANTENNA__156__A
*779 ANTENNA_cbx_8__0_\.cbx_8__0_\.mem_top_ipin_0\.sky130_fd_sc_hd__dfrtp_1_0__RESET_B
*780 ANTENNA_cbx_8__0_\.cbx_8__0_\.mem_top_ipin_0\.sky130_fd_sc_hd__dfrtp_1_1__RESET_B
*781 ANTENNA_cbx_8__0_\.cbx_8__0_\.mem_top_ipin_0\.sky130_fd_sc_hd__dfrtp_1_2__RESET_B
*782 ANTENNA_cbx_8__0_\.cbx_8__0_\.mem_top_ipin_0\.sky130_fd_sc_hd__dfrtp_1_3__RESET_B
*783 ANTENNA_cbx_8__0_\.cbx_8__0_\.mem_top_ipin_1\.sky130_fd_sc_hd__dfrtp_1_0__RESET_B
*784 ANTENNA_cbx_8__0_\.cbx_8__0_\.mem_top_ipin_1\.sky130_fd_sc_hd__dfrtp_1_1__D
*785 ANTENNA_cbx_8__0_\.cbx_8__0_\.mem_top_ipin_1\.sky130_fd_sc_hd__dfrtp_1_1__RESET_B
*786 ANTENNA_cbx_8__0_\.cbx_8__0_\.mem_top_ipin_1\.sky130_fd_sc_hd__dfrtp_1_2__RESET_B
*787 ANTENNA_cbx_8__0_\.cbx_8__0_\.mem_top_ipin_1\.sky130_fd_sc_hd__dfrtp_1_3__RESET_B
*788 ANTENNA_cbx_8__0_\.cbx_8__0_\.mem_top_ipin_2\.sky130_fd_sc_hd__dfrtp_1_0__RESET_B
*789 ANTENNA_cbx_8__0_\.cbx_8__0_\.mem_top_ipin_2\.sky130_fd_sc_hd__dfrtp_1_1__RESET_B
*790 ANTENNA_cbx_8__0_\.cbx_8__0_\.mem_top_ipin_2\.sky130_fd_sc_hd__dfrtp_1_2__RESET_B
*791 ANTENNA_cbx_8__0_\.cbx_8__0_\.mem_top_ipin_2\.sky130_fd_sc_hd__dfrtp_1_3__RESET_B
*792 ANTENNA_cbx_8__0_\.cbx_8__0_\.mem_top_ipin_3\.sky130_fd_sc_hd__dfrtp_1_0__RESET_B
*793 ANTENNA_cbx_8__0_\.cbx_8__0_\.mem_top_ipin_3\.sky130_fd_sc_hd__dfrtp_1_1__RESET_B
*794 ANTENNA_cbx_8__0_\.cbx_8__0_\.mem_top_ipin_3\.sky130_fd_sc_hd__dfrtp_1_2__RESET_B
*795 ANTENNA_cbx_8__0_\.cbx_8__0_\.mem_top_ipin_3\.sky130_fd_sc_hd__dfrtp_1_3__RESET_B
*796 ANTENNA_cbx_8__0_\.cbx_8__0_\.mux_top_ipin_0\.mux_l1_in_0__A0
*797 ANTENNA_cbx_8__0_\.cbx_8__0_\.mux_top_ipin_0\.mux_l1_in_0__A1
*798 ANTENNA_cbx_8__0_\.cbx_8__0_\.mux_top_ipin_0\.mux_l1_in_2__A0
*799 ANTENNA_cbx_8__0_\.cbx_8__0_\.mux_top_ipin_0\.mux_l1_in_2__A1
*800 ANTENNA_cbx_8__0_\.cbx_8__0_\.mux_top_ipin_0\.mux_l1_in_3__A0
*801 ANTENNA_cbx_8__0_\.cbx_8__0_\.mux_top_ipin_0\.mux_l1_in_3__A1
*802 ANTENNA_cbx_8__0_\.cbx_8__0_\.mux_top_ipin_0\.mux_l1_in_4__A0
*803 ANTENNA_cbx_8__0_\.cbx_8__0_\.mux_top_ipin_0\.mux_l1_in_4__A1
*804 ANTENNA_cbx_8__0_\.cbx_8__0_\.mux_top_ipin_0\.mux_l2_in_3__A1
*805 ANTENNA_cbx_8__0_\.cbx_8__0_\.mux_top_ipin_1\.mux_l1_in_0__A0
*806 ANTENNA_cbx_8__0_\.cbx_8__0_\.mux_top_ipin_1\.mux_l1_in_0__S
*807 ANTENNA_cbx_8__0_\.cbx_8__0_\.mux_top_ipin_1\.mux_l1_in_1__A0
*808 ANTENNA_cbx_8__0_\.cbx_8__0_\.mux_top_ipin_1\.mux_l1_in_1__A1
*809 ANTENNA_cbx_8__0_\.cbx_8__0_\.mux_top_ipin_1\.mux_l1_in_1__S
*810 ANTENNA_cbx_8__0_\.cbx_8__0_\.mux_top_ipin_1\.mux_l1_in_2__A0
*811 ANTENNA_cbx_8__0_\.cbx_8__0_\.mux_top_ipin_1\.mux_l1_in_2__A1
*812 ANTENNA_cbx_8__0_\.cbx_8__0_\.mux_top_ipin_1\.mux_l1_in_2__S
*813 ANTENNA_cbx_8__0_\.cbx_8__0_\.mux_top_ipin_1\.mux_l1_in_3__A0