*SPEF "ieee 1481-1999"
*DESIGN "bottom_left_tile"
*DATE "11:11:11 Fri 11 11, 1111"
*VENDOR "OpenRCX"
*PROGRAM "Parallel Extraction"
*VERSION "1.0"
*DESIGN_FLOW "NAME_SCOPE LOCAL" "PIN_CAP NONE"
*DIVIDER /
*DELIMITER :
*BUS_DELIMITER []
*T_UNIT 1 NS
*C_UNIT 1 PF
*R_UNIT 1 OHM
*L_UNIT 1 HENRY

*NAME_MAP
*3 ccff_head
*4 ccff_tail
*5 chanx_right_in[0]
*6 chanx_right_in[10]
*7 chanx_right_in[11]
*8 chanx_right_in[12]
*9 chanx_right_in[13]
*10 chanx_right_in[14]
*11 chanx_right_in[15]
*12 chanx_right_in[16]
*13 chanx_right_in[17]
*14 chanx_right_in[18]
*15 chanx_right_in[19]
*16 chanx_right_in[1]
*17 chanx_right_in[20]
*18 chanx_right_in[21]
*19 chanx_right_in[22]
*20 chanx_right_in[23]
*21 chanx_right_in[24]
*22 chanx_right_in[25]
*23 chanx_right_in[26]
*24 chanx_right_in[27]
*25 chanx_right_in[28]
*26 chanx_right_in[29]
*27 chanx_right_in[2]
*28 chanx_right_in[3]
*29 chanx_right_in[4]
*30 chanx_right_in[5]
*31 chanx_right_in[6]
*32 chanx_right_in[7]
*33 chanx_right_in[8]
*34 chanx_right_in[9]
*35 chanx_right_out[0]
*36 chanx_right_out[10]
*37 chanx_right_out[11]
*38 chanx_right_out[12]
*39 chanx_right_out[13]
*40 chanx_right_out[14]
*41 chanx_right_out[15]
*42 chanx_right_out[16]
*43 chanx_right_out[17]
*44 chanx_right_out[18]
*45 chanx_right_out[19]
*46 chanx_right_out[1]
*47 chanx_right_out[20]
*48 chanx_right_out[21]
*49 chanx_right_out[22]
*50 chanx_right_out[23]
*51 chanx_right_out[24]
*52 chanx_right_out[25]
*53 chanx_right_out[26]
*54 chanx_right_out[27]
*55 chanx_right_out[28]
*56 chanx_right_out[29]
*57 chanx_right_out[2]
*58 chanx_right_out[3]
*59 chanx_right_out[4]
*60 chanx_right_out[5]
*61 chanx_right_out[6]
*62 chanx_right_out[7]
*63 chanx_right_out[8]
*64 chanx_right_out[9]
*65 chany_top_in[0]
*66 chany_top_in[10]
*67 chany_top_in[11]
*68 chany_top_in[12]
*69 chany_top_in[13]
*70 chany_top_in[14]
*71 chany_top_in[15]
*72 chany_top_in[16]
*73 chany_top_in[17]
*74 chany_top_in[18]
*75 chany_top_in[19]
*76 chany_top_in[1]
*77 chany_top_in[20]
*78 chany_top_in[21]
*79 chany_top_in[22]
*80 chany_top_in[23]
*81 chany_top_in[24]
*82 chany_top_in[25]
*83 chany_top_in[26]
*84 chany_top_in[27]
*85 chany_top_in[28]
*86 chany_top_in[29]
*87 chany_top_in[2]
*88 chany_top_in[3]
*89 chany_top_in[4]
*90 chany_top_in[5]
*91 chany_top_in[6]
*92 chany_top_in[7]
*93 chany_top_in[8]
*94 chany_top_in[9]
*95 chany_top_out[0]
*96 chany_top_out[10]
*97 chany_top_out[11]
*98 chany_top_out[12]
*99 chany_top_out[13]
*100 chany_top_out[14]
*101 chany_top_out[15]
*102 chany_top_out[16]
*103 chany_top_out[17]
*104 chany_top_out[18]
*105 chany_top_out[19]
*106 chany_top_out[1]
*107 chany_top_out[20]
*108 chany_top_out[21]
*109 chany_top_out[22]
*110 chany_top_out[23]
*111 chany_top_out[24]
*112 chany_top_out[25]
*113 chany_top_out[26]
*114 chany_top_out[27]
*115 chany_top_out[28]
*116 chany_top_out[29]
*117 chany_top_out[2]
*118 chany_top_out[3]
*119 chany_top_out[4]
*120 chany_top_out[5]
*121 chany_top_out[6]
*122 chany_top_out[7]
*123 chany_top_out[8]
*124 chany_top_out[9]
*125 prog_clk
*126 prog_reset
*127 reset
*128 right_bottom_grid_top_width_0_height_0_subtile_0__pin_inpad_0_
*129 right_bottom_grid_top_width_0_height_0_subtile_1__pin_inpad_0_
*130 right_bottom_grid_top_width_0_height_0_subtile_2__pin_inpad_0_
*131 right_bottom_grid_top_width_0_height_0_subtile_3__pin_inpad_0_
*132 test_enable
*133 top_left_grid_right_width_0_height_0_subtile_0__pin_inpad_0_
*134 top_left_grid_right_width_0_height_0_subtile_1__pin_inpad_0_
*135 top_left_grid_right_width_0_height_0_subtile_2__pin_inpad_0_
*136 top_left_grid_right_width_0_height_0_subtile_3__pin_inpad_0_
*137 clknet_0_prog_clk
*138 clknet_3_0__leaf_prog_clk
*139 clknet_3_1__leaf_prog_clk
*140 clknet_3_2__leaf_prog_clk
*141 clknet_3_3__leaf_prog_clk
*142 clknet_3_4__leaf_prog_clk
*143 clknet_3_5__leaf_prog_clk
*144 clknet_3_6__leaf_prog_clk
*145 clknet_3_7__leaf_prog_clk
*146 net1
*147 net10
*148 net100
*149 net101
*150 net102
*151 net103
*152 net104
*153 net105
*154 net106
*155 net107
*156 net108
*157 net109
*158 net11
*159 net110
*160 net111
*161 net112
*162 net113
*163 net114
*164 net115
*165 net116
*166 net117
*167 net118
*168 net119
*169 net12
*170 net120
*171 net121
*172 net122
*173 net123
*174 net124
*175 net125
*176 net126
*177 net127
*178 net128
*179 net129
*180 net13
*181 net130
*182 net131
*183 net132
*184 net133
*185 net134
*186 net135
*187 net136
*188 net137
*189 net138
*190 net139
*191 net14
*192 net140
*193 net141
*194 net142
*195 net143
*196 net144
*197 net145
*198 net146
*199 net147
*200 net148
*201 net149
*202 net15
*203 net150
*204 net151
*205 net152
*206 net153
*207 net154
*208 net155
*209 net156
*210 net157
*211 net158
*212 net159
*213 net16
*214 net160
*215 net161
*216 net162
*217 net163
*218 net164
*219 net165
*220 net166
*221 net167
*222 net168
*223 net169
*224 net17
*225 net170
*226 net171
*227 net172
*228 net173
*229 net174
*230 net175
*231 net176
*232 net177
*233 net178
*234 net179
*235 net18
*236 net180
*237 net181
*238 net182
*239 net183
*240 net184
*241 net185
*242 net186
*243 net187
*244 net188
*245 net189
*246 net19
*247 net190
*248 net191
*249 net192
*250 net193
*251 net194
*252 net195
*253 net196
*254 net197
*255 net198
*256 net199
*257 net2
*258 net20
*259 net200
*260 net201
*261 net202
*262 net203
*263 net204
*264 net205
*265 net206
*266 net207
*267 net208
*268 net209
*269 net21
*270 net210
*271 net211
*272 net212
*273 net213
*274 net214
*275 net215
*276 net216
*277 net217
*278 net218
*279 net219
*280 net22
*281 net220
*282 net221
*283 net222
*284 net223
*285 net224
*286 net225
*287 net226
*288 net227
*289 net228
*290 net229
*291 net23
*292 net230
*293 net231
*294 net232
*295 net233
*296 net234
*297 net235
*298 net236
*299 net237
*300 net238
*301 net239
*302 net24
*303 net240
*304 net241
*305 net242
*306 net243
*307 net244
*308 net245
*309 net246
*310 net247
*311 net248
*312 net249
*313 net25
*314 net250
*315 net251
*316 net252
*317 net253
*318 net254
*319 net255
*320 net256
*321 net257
*322 net258
*323 net259
*324 net26
*325 net260
*326 net261
*327 net262
*328 net263
*329 net264
*330 net265
*331 net266
*332 net267
*333 net268
*334 net269
*335 net27
*336 net270
*337 net271
*338 net272
*339 net273
*340 net274
*341 net275
*342 net276
*343 net277
*344 net278
*345 net279
*346 net28
*347 net280
*348 net281
*349 net282
*350 net283
*351 net284
*352 net285
*353 net286
*354 net287
*355 net288
*356 net289
*357 net29
*358 net290
*359 net291
*360 net292
*361 net293
*362 net294
*363 net295
*364 net296
*365 net297
*366 net298
*367 net299
*368 net3
*369 net30
*370 net300
*371 net301
*372 net302
*373 net303
*374 net304
*375 net305
*376 net306
*377 net307
*378 net308
*379 net309
*380 net31
*381 net310
*382 net311
*383 net312
*384 net313
*385 net314
*386 net315
*387 net316
*388 net317
*389 net318
*390 net319
*391 net32
*392 net320
*393 net321
*394 net322
*395 net323
*396 net324
*397 net325
*398 net326
*399 net327
*400 net328
*401 net329
*402 net33
*403 net330
*404 net331
*405 net332
*406 net333
*407 net334
*408 net335
*409 net336
*410 net337
*411 net338
*412 net339
*413 net34
*414 net340
*415 net341
*416 net342
*417 net343
*418 net344
*419 net345
*420 net346
*421 net347
*422 net348
*423 net349
*424 net35
*425 net350
*426 net351
*427 net352
*428 net353
*429 net354
*430 net355
*431 net356
*432 net357
*433 net358
*434 net359
*435 net36
*436 net360
*437 net361
*438 net362
*439 net363
*440 net364
*441 net365
*442 net366
*443 net367
*444 net368
*445 net369
*446 net37
*447 net370
*448 net371
*449 net372
*450 net373
*451 net374
*452 net375
*453 net376
*454 net377
*455 net378
*456 net379
*457 net38
*458 net380
*459 net381
*460 net382
*461 net383
*462 net39
*463 net4
*464 net40
*465 net41
*466 net42
*467 net43
*468 net44
*469 net45
*470 net46
*471 net47
*472 net48
*473 net49
*474 net5
*475 net50
*476 net51
*477 net52
*478 net53
*479 net54
*480 net55
*481 net56
*482 net57
*483 net58
*484 net59
*485 net6
*486 net60
*487 net61
*488 net62
*489 net63
*490 net64
*491 net65
*492 net66
*493 net67
*494 net68
*495 net69
*496 net7
*497 net70
*498 net71
*499 net72
*500 net73
*501 net74
*502 net75
*503 net76
*504 net77
*505 net78
*506 net79
*507 net8
*508 net80
*509 net81
*510 net82
*511 net83
*512 net84
*513 net85
*514 net86
*515 net87
*516 net88
*517 net89
*518 net9
*519 net90
*520 net91
*521 net92
*522 net93
*523 net94
*524 net95
*525 net96
*526 net97
*527 net98
*528 net99
*529 sb_0__0_\.mem_right_track_0\.ccff_head
*530 sb_0__0_\.mem_right_track_0\.ccff_tail
*531 sb_0__0_\.mem_right_track_0\.mem_out\[0\]
*532 sb_0__0_\.mem_right_track_10\.ccff_head
*533 sb_0__0_\.mem_right_track_10\.ccff_tail
*534 sb_0__0_\.mem_right_track_10\.mem_out\[0\]
*535 sb_0__0_\.mem_right_track_12\.ccff_tail
*536 sb_0__0_\.mem_right_track_12\.mem_out\[0\]
*537 sb_0__0_\.mem_right_track_14\.ccff_tail
*538 sb_0__0_\.mem_right_track_14\.mem_out\[0\]
*539 sb_0__0_\.mem_right_track_16\.ccff_tail
*540 sb_0__0_\.mem_right_track_16\.mem_out\[0\]
*541 sb_0__0_\.mem_right_track_18\.ccff_tail
*542 sb_0__0_\.mem_right_track_18\.mem_out\[0\]
*543 sb_0__0_\.mem_right_track_2\.ccff_tail
*544 sb_0__0_\.mem_right_track_2\.mem_out\[0\]
*545 sb_0__0_\.mem_right_track_28\.ccff_tail
*546 sb_0__0_\.mem_right_track_28\.mem_out\[0\]
*547 sb_0__0_\.mem_right_track_30\.ccff_tail
*548 sb_0__0_\.mem_right_track_30\.mem_out\[0\]
*549 sb_0__0_\.mem_right_track_32\.ccff_tail
*550 sb_0__0_\.mem_right_track_32\.mem_out\[0\]
*551 sb_0__0_\.mem_right_track_34\.ccff_tail
*552 sb_0__0_\.mem_right_track_34\.mem_out\[0\]
*553 sb_0__0_\.mem_right_track_4\.ccff_tail
*554 sb_0__0_\.mem_right_track_4\.mem_out\[0\]
*555 sb_0__0_\.mem_right_track_44\.ccff_tail
*556 sb_0__0_\.mem_right_track_44\.mem_out\[0\]
*557 sb_0__0_\.mem_right_track_46\.ccff_tail
*558 sb_0__0_\.mem_right_track_46\.mem_out\[0\]
*559 sb_0__0_\.mem_right_track_48\.ccff_tail
*560 sb_0__0_\.mem_right_track_48\.mem_out\[0\]
*561 sb_0__0_\.mem_right_track_50\.mem_out\[0\]
*562 sb_0__0_\.mem_right_track_6\.ccff_tail
*563 sb_0__0_\.mem_right_track_6\.mem_out\[0\]
*564 sb_0__0_\.mem_right_track_8\.mem_out\[0\]
*565 sb_0__0_\.mem_top_track_0\.ccff_tail
*566 sb_0__0_\.mem_top_track_0\.mem_out\[0\]
*567 sb_0__0_\.mem_top_track_10\.ccff_head
*568 sb_0__0_\.mem_top_track_10\.ccff_tail
*569 sb_0__0_\.mem_top_track_10\.mem_out\[0\]
*570 sb_0__0_\.mem_top_track_12\.ccff_tail
*571 sb_0__0_\.mem_top_track_12\.mem_out\[0\]
*572 sb_0__0_\.mem_top_track_14\.ccff_tail
*573 sb_0__0_\.mem_top_track_14\.mem_out\[0\]
*574 sb_0__0_\.mem_top_track_16\.ccff_tail
*575 sb_0__0_\.mem_top_track_16\.mem_out\[0\]
*576 sb_0__0_\.mem_top_track_18\.ccff_tail
*577 sb_0__0_\.mem_top_track_18\.mem_out\[0\]
*578 sb_0__0_\.mem_top_track_2\.ccff_tail
*579 sb_0__0_\.mem_top_track_2\.mem_out\[0\]
*580 sb_0__0_\.mem_top_track_28\.ccff_tail
*581 sb_0__0_\.mem_top_track_28\.mem_out\[0\]
*582 sb_0__0_\.mem_top_track_30\.ccff_tail
*583 sb_0__0_\.mem_top_track_30\.mem_out\[0\]
*584 sb_0__0_\.mem_top_track_32\.ccff_tail
*585 sb_0__0_\.mem_top_track_32\.mem_out\[0\]
*586 sb_0__0_\.mem_top_track_34\.ccff_tail
*587 sb_0__0_\.mem_top_track_34\.mem_out\[0\]
*588 sb_0__0_\.mem_top_track_4\.ccff_tail
*589 sb_0__0_\.mem_top_track_4\.mem_out\[0\]
*590 sb_0__0_\.mem_top_track_44\.ccff_tail
*591 sb_0__0_\.mem_top_track_44\.mem_out\[0\]
*592 sb_0__0_\.mem_top_track_46\.ccff_tail
*593 sb_0__0_\.mem_top_track_46\.mem_out\[0\]
*594 sb_0__0_\.mem_top_track_48\.ccff_tail
*595 sb_0__0_\.mem_top_track_48\.mem_out\[0\]
*596 sb_0__0_\.mem_top_track_50\.mem_out\[0\]
*597 sb_0__0_\.mem_top_track_6\.ccff_tail
*598 sb_0__0_\.mem_top_track_6\.mem_out\[0\]
*599 sb_0__0_\.mem_top_track_8\.mem_out\[0\]
*600 sb_0__0_\.mux_right_track_0\.out
*601 sb_0__0_\.mux_right_track_0\.sky130_fd_sc_hd__mux2_1_0_X
*602 sb_0__0_\.mux_right_track_0\.sky130_fd_sc_hd__mux2_1_1_X
*603 sb_0__0_\.mux_right_track_0\.sky130_fd_sc_hd__mux2_1_2_X
*604 sb_0__0_\.mux_right_track_10\.out
*605 sb_0__0_\.mux_right_track_10\.sky130_fd_sc_hd__mux2_1_0_X
*606 sb_0__0_\.mux_right_track_10\.sky130_fd_sc_hd__mux2_1_1_X
*607 sb_0__0_\.mux_right_track_12\.out
*608 sb_0__0_\.mux_right_track_12\.sky130_fd_sc_hd__mux2_1_0_X
*609 sb_0__0_\.mux_right_track_12\.sky130_fd_sc_hd__mux2_1_1_X
*610 sb_0__0_\.mux_right_track_14\.out
*611 sb_0__0_\.mux_right_track_14\.sky130_fd_sc_hd__mux2_1_0_X
*612 sb_0__0_\.mux_right_track_14\.sky130_fd_sc_hd__mux2_1_1_X
*613 sb_0__0_\.mux_right_track_16\.out
*614 sb_0__0_\.mux_right_track_16\.sky130_fd_sc_hd__mux2_1_0_X
*615 sb_0__0_\.mux_right_track_16\.sky130_fd_sc_hd__mux2_1_1_X
*616 sb_0__0_\.mux_right_track_18\.out
*617 sb_0__0_\.mux_right_track_18\.sky130_fd_sc_hd__mux2_1_0_X
*618 sb_0__0_\.mux_right_track_18\.sky130_fd_sc_hd__mux2_1_1_X
*619 sb_0__0_\.mux_right_track_2\.out
*620 sb_0__0_\.mux_right_track_2\.sky130_fd_sc_hd__mux2_1_0_X
*621 sb_0__0_\.mux_right_track_2\.sky130_fd_sc_hd__mux2_1_1_X
*622 sb_0__0_\.mux_right_track_28\.out
*623 sb_0__0_\.mux_right_track_28\.sky130_fd_sc_hd__mux2_1_0_X
*624 sb_0__0_\.mux_right_track_28\.sky130_fd_sc_hd__mux2_1_1_X
*625 sb_0__0_\.mux_right_track_30\.out
*626 sb_0__0_\.mux_right_track_30\.sky130_fd_sc_hd__mux2_1_0_X
*627 sb_0__0_\.mux_right_track_30\.sky130_fd_sc_hd__mux2_1_1_X
*628 sb_0__0_\.mux_right_track_32\.out
*629 sb_0__0_\.mux_right_track_32\.sky130_fd_sc_hd__mux2_1_0_X
*630 sb_0__0_\.mux_right_track_32\.sky130_fd_sc_hd__mux2_1_1_X
*631 sb_0__0_\.mux_right_track_34\.out
*632 sb_0__0_\.mux_right_track_34\.sky130_fd_sc_hd__mux2_1_0_X
*633 sb_0__0_\.mux_right_track_34\.sky130_fd_sc_hd__mux2_1_1_X
*634 sb_0__0_\.mux_right_track_4\.out
*635 sb_0__0_\.mux_right_track_4\.sky130_fd_sc_hd__mux2_1_0_X
*636 sb_0__0_\.mux_right_track_4\.sky130_fd_sc_hd__mux2_1_1_X
*637 sb_0__0_\.mux_right_track_44\.out
*638 sb_0__0_\.mux_right_track_44\.sky130_fd_sc_hd__mux2_1_0_X
*639 sb_0__0_\.mux_right_track_44\.sky130_fd_sc_hd__mux2_1_1_X
*640 sb_0__0_\.mux_right_track_46\.out
*641 sb_0__0_\.mux_right_track_46\.sky130_fd_sc_hd__mux2_1_0_X
*642 sb_0__0_\.mux_right_track_46\.sky130_fd_sc_hd__mux2_1_1_X
*643 sb_0__0_\.mux_right_track_48\.out
*644 sb_0__0_\.mux_right_track_48\.sky130_fd_sc_hd__mux2_1_0_X
*645 sb_0__0_\.mux_right_track_48\.sky130_fd_sc_hd__mux2_1_1_X
*646 sb_0__0_\.mux_right_track_50\.out
*647 sb_0__0_\.mux_right_track_50\.sky130_fd_sc_hd__mux2_1_0_X
*648 sb_0__0_\.mux_right_track_50\.sky130_fd_sc_hd__mux2_1_1_X
*649 sb_0__0_\.mux_right_track_6\.out
*650 sb_0__0_\.mux_right_track_6\.sky130_fd_sc_hd__mux2_1_0_X
*651 sb_0__0_\.mux_right_track_6\.sky130_fd_sc_hd__mux2_1_1_X
*652 sb_0__0_\.mux_right_track_6\.sky130_fd_sc_hd__mux2_1_2_X
*653 sb_0__0_\.mux_right_track_8\.out
*654 sb_0__0_\.mux_right_track_8\.sky130_fd_sc_hd__mux2_1_0_X
*655 sb_0__0_\.mux_right_track_8\.sky130_fd_sc_hd__mux2_1_1_X
*656 sb_0__0_\.mux_top_track_0\.out
*657 sb_0__0_\.mux_top_track_0\.sky130_fd_sc_hd__mux2_1_0_X
*658 sb_0__0_\.mux_top_track_0\.sky130_fd_sc_hd__mux2_1_1_X
*659 sb_0__0_\.mux_top_track_0\.sky130_fd_sc_hd__mux2_1_2_X
*660 sb_0__0_\.mux_top_track_10\.out
*661 sb_0__0_\.mux_top_track_10\.sky130_fd_sc_hd__mux2_1_0_X
*662 sb_0__0_\.mux_top_track_10\.sky130_fd_sc_hd__mux2_1_1_X
*663 sb_0__0_\.mux_top_track_12\.out
*664 sb_0__0_\.mux_top_track_12\.sky130_fd_sc_hd__mux2_1_0_X
*665 sb_0__0_\.mux_top_track_12\.sky130_fd_sc_hd__mux2_1_1_X
*666 sb_0__0_\.mux_top_track_14\.out
*667 sb_0__0_\.mux_top_track_14\.sky130_fd_sc_hd__mux2_1_0_X
*668 sb_0__0_\.mux_top_track_14\.sky130_fd_sc_hd__mux2_1_1_X
*669 sb_0__0_\.mux_top_track_16\.out
*670 sb_0__0_\.mux_top_track_16\.sky130_fd_sc_hd__mux2_1_0_X
*671 sb_0__0_\.mux_top_track_16\.sky130_fd_sc_hd__mux2_1_1_X
*672 sb_0__0_\.mux_top_track_18\.out
*673 sb_0__0_\.mux_top_track_18\.sky130_fd_sc_hd__mux2_1_0_X
*674 sb_0__0_\.mux_top_track_18\.sky130_fd_sc_hd__mux2_1_1_X
*675 sb_0__0_\.mux_top_track_2\.out
*676 sb_0__0_\.mux_top_track_2\.sky130_fd_sc_hd__mux2_1_0_X
*677 sb_0__0_\.mux_top_track_2\.sky130_fd_sc_hd__mux2_1_1_X
*678 sb_0__0_\.mux_top_track_28\.out
*679 sb_0__0_\.mux_top_track_28\.sky130_fd_sc_hd__mux2_1_0_X
*680 sb_0__0_\.mux_top_track_28\.sky130_fd_sc_hd__mux2_1_1_X
*681 sb_0__0_\.mux_top_track_30\.out
*682 sb_0__0_\.mux_top_track_30\.sky130_fd_sc_hd__mux2_1_0_X
*683 sb_0__0_\.mux_top_track_30\.sky130_fd_sc_hd__mux2_1_1_X
*684 sb_0__0_\.mux_top_track_32\.out
*685 sb_0__0_\.mux_top_track_32\.sky130_fd_sc_hd__mux2_1_0_X
*686 sb_0__0_\.mux_top_track_32\.sky130_fd_sc_hd__mux2_1_1_X
*687 sb_0__0_\.mux_top_track_34\.out
*688 sb_0__0_\.mux_top_track_34\.sky130_fd_sc_hd__mux2_1_0_X
*689 sb_0__0_\.mux_top_track_34\.sky130_fd_sc_hd__mux2_1_1_X
*690 sb_0__0_\.mux_top_track_4\.out
*691 sb_0__0_\.mux_top_track_4\.sky130_fd_sc_hd__mux2_1_0_X
*692 sb_0__0_\.mux_top_track_4\.sky130_fd_sc_hd__mux2_1_1_X
*693 sb_0__0_\.mux_top_track_44\.out
*694 sb_0__0_\.mux_top_track_44\.sky130_fd_sc_hd__mux2_1_0_X
*695 sb_0__0_\.mux_top_track_44\.sky130_fd_sc_hd__mux2_1_1_X
*696 sb_0__0_\.mux_top_track_46\.out
*697 sb_0__0_\.mux_top_track_46\.sky130_fd_sc_hd__mux2_1_0_X
*698 sb_0__0_\.mux_top_track_46\.sky130_fd_sc_hd__mux2_1_1_X
*699 sb_0__0_\.mux_top_track_48\.out
*700 sb_0__0_\.mux_top_track_48\.sky130_fd_sc_hd__mux2_1_0_X
*701 sb_0__0_\.mux_top_track_48\.sky130_fd_sc_hd__mux2_1_1_X
*702 sb_0__0_\.mux_top_track_50\.out
*703 sb_0__0_\.mux_top_track_50\.sky130_fd_sc_hd__mux2_1_0_X
*704 sb_0__0_\.mux_top_track_50\.sky130_fd_sc_hd__mux2_1_1_X
*705 sb_0__0_\.mux_top_track_6\.out
*706 sb_0__0_\.mux_top_track_6\.sky130_fd_sc_hd__mux2_1_0_X
*707 sb_0__0_\.mux_top_track_6\.sky130_fd_sc_hd__mux2_1_1_X
*708 sb_0__0_\.mux_top_track_6\.sky130_fd_sc_hd__mux2_1_2_X
*709 sb_0__0_\.mux_top_track_8\.out
*710 sb_0__0_\.mux_top_track_8\.sky130_fd_sc_hd__mux2_1_0_X
*711 sb_0__0_\.mux_top_track_8\.sky130_fd_sc_hd__mux2_1_1_X
*712 ANTENNA_1
*713 ANTENNA_10
*714 ANTENNA_11
*715 ANTENNA_12
*716 ANTENNA_13
*717 ANTENNA_14
*718 ANTENNA_15
*719 ANTENNA_16
*720 ANTENNA_17
*721 ANTENNA_18
*722 ANTENNA_19
*723 ANTENNA_2
*724 ANTENNA_20
*725 ANTENNA_21
*726 ANTENNA_22
*727 ANTENNA_23
*728 ANTENNA_24
*729 ANTENNA_25
*730 ANTENNA_26
*731 ANTENNA_27
*732 ANTENNA_28
*733 ANTENNA_29
*734 ANTENNA_3
*735 ANTENNA_4
*736 ANTENNA_5
*737 ANTENNA_6
*738 ANTENNA_7
*739 ANTENNA_8
*740 ANTENNA_9
*741 ANTENNA__072__A
*742 ANTENNA__073__A
*743 ANTENNA__074__A
*744 ANTENNA__080__A
*745 ANTENNA__081__A
*746 ANTENNA__082__A
*747 ANTENNA__083__A
*748 ANTENNA__089__A
*749 ANTENNA__091__A
*750 ANTENNA__103__A
*751 ANTENNA__112__A
*752 ANTENNA__113__A
*753 ANTENNA__119__A
*754 ANTENNA__120__A
*755 ANTENNA_clkbuf_0_prog_clk_A
*756 ANTENNA_fanout125_A
*757 ANTENNA_fanout126_A
*758 ANTENNA_fanout127_A
*759 ANTENNA_fanout128_A
*760 ANTENNA_fanout129_A
*761 ANTENNA_hold100_A
*762 ANTENNA_hold104_A
*763 ANTENNA_hold112_A
*764 ANTENNA_hold113_A
*765 ANTENNA_hold132_A
*766 ANTENNA_hold133_A
*767 ANTENNA_hold136_A
*768 ANTENNA_hold152_A
*769 ANTENNA_hold160_A
*770 ANTENNA_hold162_A
*771 ANTENNA_hold184_A
*772 ANTENNA_hold186_A
*773 ANTENNA_hold194_A
*774 ANTENNA_hold198_A
*775 ANTENNA_hold204_A
*776 ANTENNA_hold20_A
*777 ANTENNA_hold211_A
*778 ANTENNA_hold212_A
*779 ANTENNA_hold213_A
*780 ANTENNA_hold214_A
*781 ANTENNA_hold32_A
*782 ANTENNA_hold49_A
*783 ANTENNA_hold66_A
*784 ANTENNA_hold68_A
*785 ANTENNA_hold6_A
*786 ANTENNA_hold78_A
*787 ANTENNA_hold84_A
*788 ANTENNA_input10_A
*789 ANTENNA_input11_A
*790 ANTENNA_input12_A
*791 ANTENNA_input13_A
*792 ANTENNA_input14_A
*793 ANTENNA_input15_A
*794 ANTENNA_input16_A
*795 ANTENNA_input17_A
*796 ANTENNA_input18_A
*797 ANTENNA_input19_A
*798 ANTENNA_input20_A
*799 ANTENNA_input21_A
*800 ANTENNA_input22_A
*801 ANTENNA_input23_A
*802 ANTENNA_input24_A
*803 ANTENNA_input25_A
*804 ANTENNA_input26_A
*805 ANTENNA_input27_A
*806 ANTENNA_input28_A
*807 ANTENNA_input29_A
*808 ANTENNA_input2_A
*809 ANTENNA_input30_A
*810 ANTENNA_input31_A
*811 ANTENNA_input32_A
*812 ANTENNA_input33_A
*813 ANTENNA_input34_A
*814 ANTENNA_input35_A
*815 ANTENNA_input36_A
*816 ANTENNA_input37_A
*817 ANTENNA_input38_A
*818 ANTENNA_input39_A
*819 ANTENNA_input3_A
*820 ANTENNA_input40_A
*821 ANTENNA_input41_A
*822 ANTENNA_input42_A
*823 ANTENNA_input43_A
*824 ANTENNA_input44_A
*825 ANTENNA_input45_A
*826 ANTENNA_input46_A
*827 ANTENNA_input47_A
*828 ANTENNA_input48_A
*829 ANTENNA_input49_A
*830 ANTENNA_input4_A
*831 ANTENNA_input50_A
*832 ANTENNA_input51_A
*833 ANTENNA_input52_A
*834 ANTENNA_input53_A
*835 ANTENNA_input54_A
*836 ANTENNA_input55_A
*837 ANTENNA_input56_A
*838 ANTENNA_input57_A
*839 ANTENNA_input58_A
*840 ANTENNA_input59_A
*841 ANTENNA_input5_A
*842 ANTENNA_input60_A
*843 ANTENNA_input61_A
*844 ANTENNA_input62_A
*845 ANTENNA_input6_A
*846 ANTENNA_input7_A
*847 ANTENNA_input8_A
*848 ANTENNA_input9_A
*849 ANTENNA_output111_A
*850 ANTENNA_output112_A
*851 ANTENNA_output113_A
*852 ANTENNA_output114_A
*853 ANTENNA_output115_A
*854 ANTENNA_output71_A
*855 ANTENNA_sb_0__0_\.mem_right_track_10\.sky130_fd_sc_hd__dfrtp_1_0__D
*856 ANTENNA_sb_0__0_\.mem_right_track_10\.sky130_fd_sc_hd__dfrtp_1_1__D
*857 ANTENNA_sb_0__0_\.mem_right_track_12\.sky130_fd_sc_hd__dfrtp_1_1__D
*858 ANTENNA_sb_0__0_\.mem_right_track_2\.sky130_fd_sc_hd__dfrtp_1_1__D
*859 ANTENNA_sb_0__0_\.mem_right_track_4\.sky130_fd_sc_hd__dfrtp_1_0__D
*860 ANTENNA_sb_0__0_\.mem_right_track_4\.sky130_fd_sc_hd__dfrtp_1_1__D
*861 ANTENNA_sb_0__0_\.mem_right_track_50\.sky130_fd_sc_hd__dfrtp_1_1__RESET_B
*862 ANTENNA_sb_0__0_\.mem_right_track_6\.sky130_fd_sc_hd__dfrtp_1_0__D
*863 ANTENNA_sb_0__0_\.mem_right_track_6\.sky130_fd_sc_hd__dfrtp_1_0__RESET_B
*864 ANTENNA_sb_0__0_\.mem_right_track_6\.sky130_fd_sc_hd__dfrtp_1_1__D
*865 ANTENNA_sb_0__0_\.mem_right_track_6\.sky130_fd_sc_hd__dfrtp_1_1__RESET_B
*866 ANTENNA_sb_0__0_\.mem_right_track_8\.sky130_fd_sc_hd__dfrtp_1_0__D
*867 ANTENNA_sb_0__0_\.mem_right_track_8\.sky130_fd_sc_hd__dfrtp_1_0__RESET_B
*868 ANTENNA_sb_0__0_\.mem_right_track_8\.sky130_fd_sc_hd__dfrtp_1_1__D
*869 ANTENNA_sb_0__0_\.mem_right_track_8\.sky130_fd_sc_hd__dfrtp_1_1__RESET_B
*870 ANTENNA_sb_0__0_\.mem_top_track_14\.sky130_fd_sc_hd__dfrtp_1_0__RESET_B
*871 ANTENNA_sb_0__0_\.mem_top_track_14\.sky130_fd_sc_hd__dfrtp_1_1__RESET_B
*872 ANTENNA_sb_0__0_\.mem_top_track_16\.sky130_fd_sc_hd__dfrtp_1_0__RESET_B
*873 ANTENNA_sb_0__0_\.mem_top_track_16\.sky130_fd_sc_hd__dfrtp_1_1__RESET_B
*874 ANTENNA_sb_0__0_\.mem_top_track_18\.sky130_fd_sc_hd__dfrtp_1_0__RESET_B
*875 ANTENNA_sb_0__0_\.mem_top_track_2\.sky130_fd_sc_hd__dfrtp_1_1__RESET_B
*876 ANTENNA_sb_0__0_\.mem_top_track_4\.sky130_fd_sc_hd__dfrtp_1_0__RESET_B
*877 ANTENNA_sb_0__0_\.mem_top_track_4\.sky130_fd_sc_hd__dfrtp_1_1__D
*878 ANTENNA_sb_0__0_\.mem_top_track_4\.sky130_fd_sc_hd__dfrtp_1_1__RESET_B
*879 ANTENNA_sb_0__0_\.mem_top_track_6\.sky130_fd_sc_hd__dfrtp_1_0__D
*880 ANTENNA_sb_0__0_\.mem_top_track_6\.sky130_fd_sc_hd__dfrtp_1_0__RESET_B
*881 ANTENNA_sb_0__0_\.mem_top_track_6\.sky130_fd_sc_hd__dfrtp_1_1__D
*882 ANTENNA_sb_0__0_\.mem_top_track_6\.sky130_fd_sc_hd__dfrtp_1_1__RESET_B
*883 ANTENNA_sb_0__0_\.mem_top_track_8\.sky130_fd_sc_hd__dfrtp_1_0__RESET_B
*884 ANTENNA_sb_0__0_\.mem_top_track_8\.sky130_fd_sc_hd__dfrtp_1_1__RESET_B
*885 ANTENNA_sb_0__0_\.mux_right_track_0\.mux_l1_in_0__A0
*886 ANTENNA_sb_0__0_\.mux_right_track_0\.mux_l1_in_1__A1
*887 ANTENNA_sb_0__0_\.mux_right_track_10\.mux_l1_in_0__A0
*888 ANTENNA_sb_0__0_\.mux_right_track_10\.mux_l1_in_0__A1
*889 ANTENNA_sb_0__0_\.mux_right_track_10\.mux_l1_in_0__S
*890 ANTENNA_sb_0__0_\.mux_right_track_10\.sky130_fd_sc_hd__buf_4_0__A
*891 ANTENNA_sb_0__0_\.mux_right_track_12\.mux_l1_in_0__A0
*892 ANTENNA_sb_0__0_\.mux_right_track_12\.mux_l1_in_0__A1
*893 ANTENNA_sb_0__0_\.mux_right_track_12\.mux_l1_in_0__S
*894 ANTENNA_sb_0__0_\.mux_right_track_12\.mux_l2_in_0__A0
*895 ANTENNA_sb_0__0_\.mux_right_track_14\.mux_l1_in_0__A0
*896 ANTENNA_sb_0__0_\.mux_right_track_14\.mux_l1_in_0__A1
*897 ANTENNA_sb_0__0_\.mux_right_track_14\.mux_l1_in_0__S
*898 ANTENNA_sb_0__0_\.mux_right_track_14\.mux_l2_in_0__A0
*899 ANTENNA_sb_0__0_\.mux_right_track_16\.mux_l1_in_0__A0
*900 ANTENNA_sb_0__0_\.mux_right_track_16\.mux_l1_in_0__A1
*901 ANTENNA_sb_0__0_\.mux_right_track_16\.mux_l2_in_0__A0
*902 ANTENNA_sb_0__0_\.mux_right_track_16\.sky130_fd_sc_hd__buf_4_0__A
*903 ANTENNA_sb_0__0_\.mux_right_track_18\.mux_l1_in_0__A0
*904 ANTENNA_sb_0__0_\.mux_right_track_18\.mux_l1_in_0__A1
*905 ANTENNA_sb_0__0_\.mux_right_track_18\.mux_l1_in_0__S
*906 ANTENNA_sb_0__0_\.mux_right_track_18\.mux_l2_in_0__A0
*907 ANTENNA_sb_0__0_\.mux_right_track_2\.mux_l1_in_0__A0
*908 ANTENNA_sb_0__0_\.mux_right_track_2\.mux_l1_in_0__A1
*909 ANTENNA_sb_0__0_\.mux_right_track_2\.mux_l1_in_0__S
*910 ANTENNA_sb_0__0_\.mux_right_track_2\.mux_l2_in_0__A0
*911 ANTENNA_sb_0__0_\.mux_right_track_2\.mux_l2_in_0__S
*912 ANTENNA_sb_0__0_\.mux_right_track_2\.sky130_fd_sc_hd__buf_4_0__A
*913 ANTENNA_sb_0__0_\.mux_right_track_28\.mux_l1_in_0__A0
*914 ANTENNA_sb_0__0_\.mux_right_track_28\.mux_l1_in_0__A1
*915 ANTENNA_sb_0__0_\.mux_right_track_30\.mux_l1_in_0__A0
*916 ANTENNA_sb_0__0_\.mux_right_track_30\.mux_l1_in_0__A1
*917 ANTENNA_sb_0__0_\.mux_right_track_32\.mux_l1_in_0__A0
*918 ANTENNA_sb_0__0_\.mux_right_track_32\.mux_l1_in_0__S
*919 ANTENNA_sb_0__0_\.mux_right_track_34\.mux_l1_in_0__A0
*920 ANTENNA_sb_0__0_\.mux_right_track_4\.mux_l1_in_0__A0
*921 ANTENNA_sb_0__0_\.mux_right_track_4\.mux_l1_in_0__A1
*922 ANTENNA_sb_0__0_\.mux_right_track_4\.mux_l2_in_0__A0
*923 ANTENNA_sb_0__0_\.mux_right_track_4\.mux_l2_in_0__S
*924 ANTENNA_sb_0__0_\.mux_right_track_44\.mux_l1_in_0__A0
*925 ANTENNA_sb_0__0_\.mux_right_track_44\.mux_l1_in_0__A1
*926 ANTENNA_sb_0__0_\.mux_right_track_46\.mux_l1_in_0__A0
*927 ANTENNA_sb_0__0_\.mux_right_track_48\.mux_l1_in_0__A0
*928 ANTENNA_sb_0__0_\.mux_right_track_48\.mux_l1_in_0__A1
*929 ANTENNA_sb_0__0_\.mux_right_track_50\.mux_l1_in_0__A0
*930 ANTENNA_sb_0__0_\.mux_right_track_6\.mux_l1_in_0__A0
*931 ANTENNA_sb_0__0_\.mux_right_track_6\.mux_l1_in_0__A1
*932 ANTENNA_sb_0__0_\.mux_right_track_6\.mux_l1_in_0__S
*933 ANTENNA_sb_0__0_\.mux_right_track_6\.mux_l1_in_1__A0
*934 ANTENNA_sb_0__0_\.mux_right_track_6\.mux_l1_in_1__A1
*935 ANTENNA_sb_0__0_\.mux_right_track_6\.mux_l1_in_1__S
*936 ANTENNA_sb_0__0_\.mux_right_track_6\.mux_l2_in_0__S
*937 ANTENNA_sb_0__0_\.mux_right_track_6\.sky130_fd_sc_hd__buf_4_0__A
*938 ANTENNA_sb_0__0_\.mux_right_track_8\.mux_l1_in_0__A0
*939 ANTENNA_sb_0__0_\.mux_right_track_8\.mux_l1_in_0__A1
*940 ANTENNA_sb_0__0_\.mux_right_track_8\.mux_l1_in_0__S
*941 ANTENNA_sb_0__0_\.mux_right_track_8\.mux_l2_in_0__A0
*942 ANTENNA_sb_0__0_\.mux_right_track_8\.mux_l2_in_0__S
*943 ANTENNA_sb_0__0_\.mux_right_track_8\.sky130_fd_sc_hd__buf_4_0__A
*944 ANTENNA_sb_0__0_\.mux_top_track_0\.mux_l1_in_0__A0
*945 ANTENNA_sb_0__0_\.mux_top_track_0\.mux_l1_in_0__A1
*946 ANTENNA_sb_0__0_\.mux_top_track_0\.mux_l1_in_0__S
*947 ANTENNA_sb_0__0_\.mux_top_track_0\.mux_l1_in_1__A1
*948 ANTENNA_sb_0__0_\.mux_top_track_0\.mux_l1_in_1__S
*949 ANTENNA_sb_0__0_\.mux_top_track_10\.mux_l1_in_0__A1
*950 ANTENNA_sb_0__0_\.mux_top_track_10\.sky130_fd_sc_hd__buf_4_0__A
*951 ANTENNA_sb_0__0_\.mux_top_track_12\.mux_l1_in_0__A1
*952 ANTENNA_sb_0__0_\.mux_top_track_12\.mux_l2_in_0__A0
*953 ANTENNA_sb_0__0_\.mux_top_track_12\.sky130_fd_sc_hd__buf_4_0__A
*954 ANTENNA_sb_0__0_\.mux_top_track_14\.mux_l1_in_0__A0
*955 ANTENNA_sb_0__0_\.mux_top_track_14\.mux_l1_in_0__A1
*956 ANTENNA_sb_0__0_\.mux_top_track_14\.mux_l2_in_0__A0
*957 ANTENNA_sb_0__0_\.mux_top_track_14\.sky130_fd_sc_hd__buf_4_0__A
*958 ANTENNA_sb_0__0_\.mux_top_track_16\.mux_l1_in_0__A0
*959 ANTENNA_sb_0__0_\.mux_top_track_16\.mux_l1_in_0__A1
*960 ANTENNA_sb_0__0_\.mux_top_track_18\.mux_l1_in_0__A1
*961 ANTENNA_sb_0__0_\.mux_top_track_2\.mux_l1_in_0__A0
*962 ANTENNA_sb_0__0_\.mux_top_track_2\.mux_l1_in_0__A1
*963 ANTENNA_sb_0__0_\.mux_top_track_2\.mux_l2_in_0__A0
*964 ANTENNA_sb_0__0_\.mux_top_track_2\.mux_l2_in_0__S
*965 ANTENNA_sb_0__0_\.mux_top_track_28\.mux_l1_in_0__A1
*966 ANTENNA_sb_0__0_\.mux_top_track_30\.mux_l1_in_0__A1
*967 ANTENNA_sb_0__0_\.mux_top_track_30\.sky130_fd_sc_hd__buf_4_0__A
*968 ANTENNA_sb_0__0_\.mux_top_track_32\.mux_l1_in_0__A1
*969 ANTENNA_sb_0__0_\.mux_top_track_34\.mux_l1_in_0__A1
*970 ANTENNA_sb_0__0_\.mux_top_track_4\.mux_l1_in_0__A0
*971 ANTENNA_sb_0__0_\.mux_top_track_4\.mux_l1_in_0__A1
*972 ANTENNA_sb_0__0_\.mux_top_track_4\.mux_l1_in_0__S
*973 ANTENNA_sb_0__0_\.mux_top_track_4\.mux_l2_in_0__A0
*974 ANTENNA_sb_0__0_\.mux_top_track_4\.mux_l2_in_0__S
*975 ANTENNA_sb_0__0_\.mux_top_track_4\.sky130_fd_sc_hd__buf_4_0__A
*976 ANTENNA_sb_0__0_\.mux_top_track_44\.mux_l1_in_0__A1
*977 ANTENNA_sb_0__0_\.mux_top_track_46\.mux_l1_in_0__A1
*978 ANTENNA_sb_0__0_\.mux_top_track_48\.mux_l1_in_0__A1
*979 ANTENNA_sb_0__0_\.mux_top_track_50\.mux_l1_in_0__A1
*980 ANTENNA_sb_0__0_\.mux_top_track_6\.mux_l1_in_0__A0
*981 ANTENNA_sb_0__0_\.mux_top_track_6\.mux_l1_in_0__A1
*982 ANTENNA_sb_0__0_\.mux_top_track_6\.mux_l1_in_0__S
*983 ANTENNA_sb_0__0_\.mux_top_track_6\.mux_l1_in_1__A0
*984 ANTENNA_sb_0__0_\.mux_top_track_6\.mux_l1_in_1__A1
*985 ANTENNA_sb_0__0_\.mux_top_track_6\.mux_l1_in_1__S
*986 ANTENNA_sb_0__0_\.mux_top_track_6\.sky130_fd_sc_hd__buf_4_0__A
*987 ANTENNA_sb_0__0_\.mux_top_track_8\.mux_l1_in_0__A0
*988 ANTENNA_sb_0__0_\.mux_top_track_8\.mux_l1_in_0__A1
*989 ANTENNA_sb_0__0_\.mux_top_track_8\.mux_l1_in_0__S
*990 ANTENNA_sb_0__0_\.mux_top_track_8\.mux_l2_in_0__A0
*991 ANTENNA_sb_0__0_\.mux_top_track_8\.sky130_fd_sc_hd__buf_4_0__A
*992 FILLER_0_107
*993 FILLER_0_111
*994 FILLER_0_113
*995 FILLER_0_125
*996 FILLER_0_137
*997 FILLER_0_141
*998 FILLER_0_15
*999 FILLER_0_153
*1000 FILLER_0_165
*1001 FILLER_0_169
*1002 FILLER_0_175
*1003 FILLER_0_182
*1004 FILLER_0_194
*1005 FILLER_0_197
*1006 FILLER_0_202
*1007 FILLER_0_222
*1008 FILLER_0_225
*1009 FILLER_0_230
*1010 FILLER_0_250
*1011 FILLER_0_253
*1012 FILLER_0_263
*1013 FILLER_0_27
*1014 FILLER_0_29
*1015 FILLER_0_3
*1016 FILLER_0_41
*1017 FILLER_0_45
*1018 FILLER_0_54
*1019 FILLER_0_57
*1020 FILLER_0_64
*1021 FILLER_0_76
*1022 FILLER_0_85
*1023 FILLER_0_95
*1024 FILLER_10_103
*1025 FILLER_10_117
*1026 FILLER_10_121
*1027 FILLER_10_125
*1028 FILLER_10_129
*1029 FILLER_10_138
*1030 FILLER_10_14
*1031 FILLER_10_143
*1032 FILLER_10_153
*1033 FILLER_10_165