*SPEF "ieee 1481-1999"
*DESIGN "bottom_left_tile"
*DATE "11:11:11 Fri 11 11, 1111"
*VENDOR "OpenRCX"
*PROGRAM "Parallel Extraction"
*VERSION "1.0"
*DESIGN_FLOW "NAME_SCOPE LOCAL" "PIN_CAP NONE"
*DIVIDER /
*DELIMITER :
*BUS_DELIMITER []
*T_UNIT 1 NS
*C_UNIT 1 PF
*R_UNIT 1 OHM
*L_UNIT 1 HENRY

*NAME_MAP
*3 ccff_head
*4 ccff_tail
*5 chanx_right_in[0]
*6 chanx_right_in[10]
*7 chanx_right_in[11]
*8 chanx_right_in[12]
*9 chanx_right_in[13]
*10 chanx_right_in[14]
*11 chanx_right_in[15]
*12 chanx_right_in[16]
*13 chanx_right_in[17]
*14 chanx_right_in[18]
*15 chanx_right_in[19]
*16 chanx_right_in[1]
*17 chanx_right_in[20]
*18 chanx_right_in[21]
*19 chanx_right_in[22]
*20 chanx_right_in[23]
*21 chanx_right_in[24]
*22 chanx_right_in[25]
*23 chanx_right_in[26]
*24 chanx_right_in[27]
*25 chanx_right_in[28]
*26 chanx_right_in[29]
*27 chanx_right_in[2]
*28 chanx_right_in[3]
*29 chanx_right_in[4]
*30 chanx_right_in[5]
*31 chanx_right_in[6]
*32 chanx_right_in[7]
*33 chanx_right_in[8]
*34 chanx_right_in[9]
*35 chanx_right_out[0]
*36 chanx_right_out[10]
*37 chanx_right_out[11]
*38 chanx_right_out[12]
*39 chanx_right_out[13]
*40 chanx_right_out[14]
*41 chanx_right_out[15]
*42 chanx_right_out[16]
*43 chanx_right_out[17]
*44 chanx_right_out[18]
*45 chanx_right_out[19]
*46 chanx_right_out[1]
*47 chanx_right_out[20]
*48 chanx_right_out[21]
*49 chanx_right_out[22]
*50 chanx_right_out[23]
*51 chanx_right_out[24]
*52 chanx_right_out[25]
*53 chanx_right_out[26]
*54 chanx_right_out[27]
*55 chanx_right_out[28]
*56 chanx_right_out[29]
*57 chanx_right_out[2]
*58 chanx_right_out[3]
*59 chanx_right_out[4]
*60 chanx_right_out[5]
*61 chanx_right_out[6]
*62 chanx_right_out[7]
*63 chanx_right_out[8]
*64 chanx_right_out[9]
*65 chany_top_in[0]
*66 chany_top_in[10]
*67 chany_top_in[11]
*68 chany_top_in[12]
*69 chany_top_in[13]
*70 chany_top_in[14]
*71 chany_top_in[15]
*72 chany_top_in[16]
*73 chany_top_in[17]
*74 chany_top_in[18]
*75 chany_top_in[19]
*76 chany_top_in[1]
*77 chany_top_in[20]
*78 chany_top_in[21]
*79 chany_top_in[22]
*80 chany_top_in[23]
*81 chany_top_in[24]
*82 chany_top_in[25]
*83 chany_top_in[26]
*84 chany_top_in[27]
*85 chany_top_in[28]
*86 chany_top_in[29]
*87 chany_top_in[2]
*88 chany_top_in[3]
*89 chany_top_in[4]
*90 chany_top_in[5]
*91 chany_top_in[6]
*92 chany_top_in[7]
*93 chany_top_in[8]
*94 chany_top_in[9]
*95 chany_top_out[0]
*96 chany_top_out[10]
*97 chany_top_out[11]
*98 chany_top_out[12]
*99 chany_top_out[13]
*100 chany_top_out[14]
*101 chany_top_out[15]
*102 chany_top_out[16]
*103 chany_top_out[17]
*104 chany_top_out[18]
*105 chany_top_out[19]
*106 chany_top_out[1]
*107 chany_top_out[20]
*108 chany_top_out[21]
*109 chany_top_out[22]
*110 chany_top_out[23]
*111 chany_top_out[24]
*112 chany_top_out[25]
*113 chany_top_out[26]
*114 chany_top_out[27]
*115 chany_top_out[28]
*116 chany_top_out[29]
*117 chany_top_out[2]
*118 chany_top_out[3]
*119 chany_top_out[4]
*120 chany_top_out[5]
*121 chany_top_out[6]
*122 chany_top_out[7]
*123 chany_top_out[8]
*124 chany_top_out[9]
*125 prog_clk
*126 prog_reset
*127 reset
*128 right_bottom_grid_top_width_0_height_0_subtile_0__pin_inpad_0_
*129 right_bottom_grid_top_width_0_height_0_subtile_1__pin_inpad_0_
*130 right_bottom_grid_top_width_0_height_0_subtile_2__pin_inpad_0_
*131 right_bottom_grid_top_width_0_height_0_subtile_3__pin_inpad_0_
*132 test_enable
*133 top_left_grid_right_width_0_height_0_subtile_0__pin_inpad_0_
*134 top_left_grid_right_width_0_height_0_subtile_1__pin_inpad_0_
*135 top_left_grid_right_width_0_height_0_subtile_2__pin_inpad_0_
*136 top_left_grid_right_width_0_height_0_subtile_3__pin_inpad_0_
*137 clknet_0_prog_clk
*138 clknet_3_0__leaf_prog_clk
*139 clknet_3_1__leaf_prog_clk
*140 clknet_3_2__leaf_prog_clk
*141 clknet_3_3__leaf_prog_clk
*142 clknet_3_4__leaf_prog_clk
*143 clknet_3_5__leaf_prog_clk
*144 clknet_3_6__leaf_prog_clk
*145 clknet_3_7__leaf_prog_clk
*146 net1
*147 net10
*148 net100
*149 net101
*150 net102
*151 net103
*152 net104
*153 net105
*154 net106
*155 net107
*156 net108
*157 net109
*158 net11
*159 net110
*160 net111
*161 net112
*162 net113
*163 net114
*164 net115
*165 net116
*166 net117
*167 net118
*168 net119
*169 net12
*170 net120
*171 net121
*172 net122
*173 net123
*174 net124
*175 net125
*176 net126
*177 net127
*178 net128
*179 net129
*180 net13
*181 net130
*182 net131
*183 net132
*184 net133
*185 net134
*186 net135
*187 net136
*188 net137
*189 net138
*190 net139
*191 net14
*192 net140
*193 net141
*194 net142
*195 net143
*196 net144
*197 net145
*198 net146
*199 net147
*200 net148
*201 net149
*202 net15
*203 net150
*204 net151
*205 net152
*206 net153
*207 net154
*208 net155
*209 net156
*210 net157
*211 net158
*212 net159
*213 net16
*214 net160
*215 net161
*216 net162
*217 net163
*218 net164
*219 net165
*220 net166
*221 net167
*222 net168
*223 net169
*224 net17
*225 net170
*226 net171
*227 net172
*228 net173
*229 net174
*230 net175
*231 net176
*232 net18
*233 net19
*234 net2
*235 net20
*236 net21
*237 net22
*238 net23
*239 net24
*240 net25
*241 net26
*242 net27
*243 net28
*244 net29
*245 net3
*246 net30
*247 net31
*248 net32
*249 net33
*250 net34
*251 net35
*252 net36
*253 net37
*254 net38
*255 net39
*256 net4
*257 net40
*258 net41
*259 net42
*260 net43
*261 net44
*262 net45
*263 net46
*264 net47
*265 net48
*266 net49
*267 net5
*268 net50
*269 net51
*270 net52
*271 net53
*272 net54
*273 net55
*274 net56
*275 net57
*276 net58
*277 net59
*278 net6
*279 net60
*280 net61
*281 net62
*282 net63
*283 net64
*284 net65
*285 net66
*286 net67
*287 net68
*288 net69
*289 net7
*290 net70
*291 net71
*292 net72
*293 net73
*294 net74
*295 net75
*296 net76
*297 net77
*298 net78
*299 net79
*300 net8
*301 net80
*302 net81
*303 net82
*304 net83
*305 net84
*306 net85
*307 net86
*308 net87
*309 net88
*310 net89
*311 net9
*312 net90
*313 net91
*314 net92
*315 net93
*316 net94
*317 net95
*318 net96
*319 net97
*320 net98
*321 net99
*322 sb_0__0_\.mem_right_track_0\.ccff_head
*323 sb_0__0_\.mem_right_track_0\.ccff_tail
*324 sb_0__0_\.mem_right_track_0\.mem_out\[0\]
*325 sb_0__0_\.mem_right_track_10\.ccff_head
*326 sb_0__0_\.mem_right_track_10\.ccff_tail
*327 sb_0__0_\.mem_right_track_10\.mem_out\[0\]
*328 sb_0__0_\.mem_right_track_12\.ccff_tail
*329 sb_0__0_\.mem_right_track_12\.mem_out\[0\]
*330 sb_0__0_\.mem_right_track_14\.ccff_tail
*331 sb_0__0_\.mem_right_track_14\.mem_out\[0\]
*332 sb_0__0_\.mem_right_track_16\.ccff_tail
*333 sb_0__0_\.mem_right_track_16\.mem_out\[0\]
*334 sb_0__0_\.mem_right_track_18\.ccff_tail
*335 sb_0__0_\.mem_right_track_18\.mem_out\[0\]
*336 sb_0__0_\.mem_right_track_2\.ccff_tail
*337 sb_0__0_\.mem_right_track_2\.mem_out\[0\]
*338 sb_0__0_\.mem_right_track_28\.ccff_tail
*339 sb_0__0_\.mem_right_track_28\.mem_out\[0\]
*340 sb_0__0_\.mem_right_track_30\.ccff_tail
*341 sb_0__0_\.mem_right_track_30\.mem_out\[0\]
*342 sb_0__0_\.mem_right_track_32\.ccff_tail
*343 sb_0__0_\.mem_right_track_32\.mem_out\[0\]
*344 sb_0__0_\.mem_right_track_34\.ccff_tail
*345 sb_0__0_\.mem_right_track_34\.mem_out\[0\]
*346 sb_0__0_\.mem_right_track_4\.ccff_tail
*347 sb_0__0_\.mem_right_track_4\.mem_out\[0\]
*348 sb_0__0_\.mem_right_track_44\.ccff_tail
*349 sb_0__0_\.mem_right_track_44\.mem_out\[0\]
*350 sb_0__0_\.mem_right_track_46\.ccff_tail
*351 sb_0__0_\.mem_right_track_46\.mem_out\[0\]
*352 sb_0__0_\.mem_right_track_48\.ccff_tail
*353 sb_0__0_\.mem_right_track_48\.mem_out\[0\]
*354 sb_0__0_\.mem_right_track_50\.mem_out\[0\]
*355 sb_0__0_\.mem_right_track_6\.ccff_tail
*356 sb_0__0_\.mem_right_track_6\.mem_out\[0\]
*357 sb_0__0_\.mem_right_track_8\.mem_out\[0\]
*358 sb_0__0_\.mem_top_track_0\.ccff_tail
*359 sb_0__0_\.mem_top_track_0\.mem_out\[0\]
*360 sb_0__0_\.mem_top_track_10\.ccff_head
*361 sb_0__0_\.mem_top_track_10\.ccff_tail
*362 sb_0__0_\.mem_top_track_10\.mem_out\[0\]
*363 sb_0__0_\.mem_top_track_12\.ccff_tail
*364 sb_0__0_\.mem_top_track_12\.mem_out\[0\]
*365 sb_0__0_\.mem_top_track_14\.ccff_tail
*366 sb_0__0_\.mem_top_track_14\.mem_out\[0\]
*367 sb_0__0_\.mem_top_track_16\.ccff_tail
*368 sb_0__0_\.mem_top_track_16\.mem_out\[0\]
*369 sb_0__0_\.mem_top_track_18\.ccff_tail
*370 sb_0__0_\.mem_top_track_18\.mem_out\[0\]
*371 sb_0__0_\.mem_top_track_2\.ccff_tail
*372 sb_0__0_\.mem_top_track_2\.mem_out\[0\]
*373 sb_0__0_\.mem_top_track_28\.ccff_tail
*374 sb_0__0_\.mem_top_track_28\.mem_out\[0\]
*375 sb_0__0_\.mem_top_track_30\.ccff_tail
*376 sb_0__0_\.mem_top_track_30\.mem_out\[0\]
*377 sb_0__0_\.mem_top_track_32\.ccff_tail
*378 sb_0__0_\.mem_top_track_32\.mem_out\[0\]
*379 sb_0__0_\.mem_top_track_34\.ccff_tail
*380 sb_0__0_\.mem_top_track_34\.mem_out\[0\]
*381 sb_0__0_\.mem_top_track_4\.ccff_tail
*382 sb_0__0_\.mem_top_track_4\.mem_out\[0\]
*383 sb_0__0_\.mem_top_track_44\.ccff_tail
*384 sb_0__0_\.mem_top_track_44\.mem_out\[0\]
*385 sb_0__0_\.mem_top_track_46\.ccff_tail
*386 sb_0__0_\.mem_top_track_46\.mem_out\[0\]
*387 sb_0__0_\.mem_top_track_48\.ccff_tail
*388 sb_0__0_\.mem_top_track_48\.mem_out\[0\]
*389 sb_0__0_\.mem_top_track_50\.mem_out\[0\]
*390 sb_0__0_\.mem_top_track_6\.ccff_tail
*391 sb_0__0_\.mem_top_track_6\.mem_out\[0\]
*392 sb_0__0_\.mem_top_track_8\.mem_out\[0\]
*393 sb_0__0_\.mux_right_track_0\.out
*394 sb_0__0_\.mux_right_track_0\.sky130_fd_sc_hd__mux2_1_0_X
*395 sb_0__0_\.mux_right_track_0\.sky130_fd_sc_hd__mux2_1_1_X
*396 sb_0__0_\.mux_right_track_0\.sky130_fd_sc_hd__mux2_1_2_X
*397 sb_0__0_\.mux_right_track_10\.out
*398 sb_0__0_\.mux_right_track_10\.sky130_fd_sc_hd__mux2_1_0_X
*399 sb_0__0_\.mux_right_track_10\.sky130_fd_sc_hd__mux2_1_1_X
*400 sb_0__0_\.mux_right_track_12\.out
*401 sb_0__0_\.mux_right_track_12\.sky130_fd_sc_hd__mux2_1_0_X
*402 sb_0__0_\.mux_right_track_12\.sky130_fd_sc_hd__mux2_1_1_X
*403 sb_0__0_\.mux_right_track_14\.out
*404 sb_0__0_\.mux_right_track_14\.sky130_fd_sc_hd__mux2_1_0_X
*405 sb_0__0_\.mux_right_track_14\.sky130_fd_sc_hd__mux2_1_1_X
*406 sb_0__0_\.mux_right_track_16\.out
*407 sb_0__0_\.mux_right_track_16\.sky130_fd_sc_hd__mux2_1_0_X
*408 sb_0__0_\.mux_right_track_16\.sky130_fd_sc_hd__mux2_1_1_X
*409 sb_0__0_\.mux_right_track_18\.out
*410 sb_0__0_\.mux_right_track_18\.sky130_fd_sc_hd__mux2_1_0_X
*411 sb_0__0_\.mux_right_track_18\.sky130_fd_sc_hd__mux2_1_1_X
*412 sb_0__0_\.mux_right_track_2\.out
*413 sb_0__0_\.mux_right_track_2\.sky130_fd_sc_hd__mux2_1_0_X
*414 sb_0__0_\.mux_right_track_2\.sky130_fd_sc_hd__mux2_1_1_X
*415 sb_0__0_\.mux_right_track_28\.out
*416 sb_0__0_\.mux_right_track_28\.sky130_fd_sc_hd__mux2_1_0_X
*417 sb_0__0_\.mux_right_track_28\.sky130_fd_sc_hd__mux2_1_1_X
*418 sb_0__0_\.mux_right_track_30\.out
*419 sb_0__0_\.mux_right_track_30\.sky130_fd_sc_hd__mux2_1_0_X
*420 sb_0__0_\.mux_right_track_30\.sky130_fd_sc_hd__mux2_1_1_X
*421 sb_0__0_\.mux_right_track_32\.out
*422 sb_0__0_\.mux_right_track_32\.sky130_fd_sc_hd__mux2_1_0_X
*423 sb_0__0_\.mux_right_track_32\.sky130_fd_sc_hd__mux2_1_1_X
*424 sb_0__0_\.mux_right_track_34\.out
*425 sb_0__0_\.mux_right_track_34\.sky130_fd_sc_hd__mux2_1_0_X
*426 sb_0__0_\.mux_right_track_34\.sky130_fd_sc_hd__mux2_1_1_X
*427 sb_0__0_\.mux_right_track_4\.out
*428 sb_0__0_\.mux_right_track_4\.sky130_fd_sc_hd__mux2_1_0_X
*429 sb_0__0_\.mux_right_track_4\.sky130_fd_sc_hd__mux2_1_1_X
*430 sb_0__0_\.mux_right_track_44\.out
*431 sb_0__0_\.mux_right_track_44\.sky130_fd_sc_hd__mux2_1_0_X
*432 sb_0__0_\.mux_right_track_44\.sky130_fd_sc_hd__mux2_1_1_X
*433 sb_0__0_\.mux_right_track_46\.out
*434 sb_0__0_\.mux_right_track_46\.sky130_fd_sc_hd__mux2_1_0_X
*435 sb_0__0_\.mux_right_track_46\.sky130_fd_sc_hd__mux2_1_1_X
*436 sb_0__0_\.mux_right_track_48\.out
*437 sb_0__0_\.mux_right_track_48\.sky130_fd_sc_hd__mux2_1_0_X
*438 sb_0__0_\.mux_right_track_48\.sky130_fd_sc_hd__mux2_1_1_X
*439 sb_0__0_\.mux_right_track_50\.out
*440 sb_0__0_\.mux_right_track_50\.sky130_fd_sc_hd__mux2_1_0_X
*441 sb_0__0_\.mux_right_track_50\.sky130_fd_sc_hd__mux2_1_1_X
*442 sb_0__0_\.mux_right_track_6\.out
*443 sb_0__0_\.mux_right_track_6\.sky130_fd_sc_hd__mux2_1_0_X
*444 sb_0__0_\.mux_right_track_6\.sky130_fd_sc_hd__mux2_1_1_X
*445 sb_0__0_\.mux_right_track_6\.sky130_fd_sc_hd__mux2_1_2_X
*446 sb_0__0_\.mux_right_track_8\.out
*447 sb_0__0_\.mux_right_track_8\.sky130_fd_sc_hd__mux2_1_0_X
*448 sb_0__0_\.mux_right_track_8\.sky130_fd_sc_hd__mux2_1_1_X
*449 sb_0__0_\.mux_top_track_0\.out
*450 sb_0__0_\.mux_top_track_0\.sky130_fd_sc_hd__mux2_1_0_X
*451 sb_0__0_\.mux_top_track_0\.sky130_fd_sc_hd__mux2_1_1_X
*452 sb_0__0_\.mux_top_track_0\.sky130_fd_sc_hd__mux2_1_2_X
*453 sb_0__0_\.mux_top_track_10\.out
*454 sb_0__0_\.mux_top_track_10\.sky130_fd_sc_hd__mux2_1_0_X
*455 sb_0__0_\.mux_top_track_10\.sky130_fd_sc_hd__mux2_1_1_X
*456 sb_0__0_\.mux_top_track_12\.out
*457 sb_0__0_\.mux_top_track_12\.sky130_fd_sc_hd__mux2_1_0_X
*458 sb_0__0_\.mux_top_track_12\.sky130_fd_sc_hd__mux2_1_1_X
*459 sb_0__0_\.mux_top_track_14\.out
*460 sb_0__0_\.mux_top_track_14\.sky130_fd_sc_hd__mux2_1_0_X
*461 sb_0__0_\.mux_top_track_14\.sky130_fd_sc_hd__mux2_1_1_X
*462 sb_0__0_\.mux_top_track_16\.out
*463 sb_0__0_\.mux_top_track_16\.sky130_fd_sc_hd__mux2_1_0_X
*464 sb_0__0_\.mux_top_track_16\.sky130_fd_sc_hd__mux2_1_1_X
*465 sb_0__0_\.mux_top_track_18\.out
*466 sb_0__0_\.mux_top_track_18\.sky130_fd_sc_hd__mux2_1_0_X
*467 sb_0__0_\.mux_top_track_18\.sky130_fd_sc_hd__mux2_1_1_X
*468 sb_0__0_\.mux_top_track_2\.out
*469 sb_0__0_\.mux_top_track_2\.sky130_fd_sc_hd__mux2_1_0_X
*470 sb_0__0_\.mux_top_track_2\.sky130_fd_sc_hd__mux2_1_1_X
*471 sb_0__0_\.mux_top_track_28\.out
*472 sb_0__0_\.mux_top_track_28\.sky130_fd_sc_hd__mux2_1_0_X
*473 sb_0__0_\.mux_top_track_28\.sky130_fd_sc_hd__mux2_1_1_X
*474 sb_0__0_\.mux_top_track_30\.out
*475 sb_0__0_\.mux_top_track_30\.sky130_fd_sc_hd__mux2_1_0_X
*476 sb_0__0_\.mux_top_track_30\.sky130_fd_sc_hd__mux2_1_1_X
*477 sb_0__0_\.mux_top_track_32\.out
*478 sb_0__0_\.mux_top_track_32\.sky130_fd_sc_hd__mux2_1_0_X
*479 sb_0__0_\.mux_top_track_32\.sky130_fd_sc_hd__mux2_1_1_X
*480 sb_0__0_\.mux_top_track_34\.out
*481 sb_0__0_\.mux_top_track_34\.sky130_fd_sc_hd__mux2_1_0_X
*482 sb_0__0_\.mux_top_track_34\.sky130_fd_sc_hd__mux2_1_1_X
*483 sb_0__0_\.mux_top_track_4\.out
*484 sb_0__0_\.mux_top_track_4\.sky130_fd_sc_hd__mux2_1_0_X
*485 sb_0__0_\.mux_top_track_4\.sky130_fd_sc_hd__mux2_1_1_X
*486 sb_0__0_\.mux_top_track_44\.out
*487 sb_0__0_\.mux_top_track_44\.sky130_fd_sc_hd__mux2_1_0_X
*488 sb_0__0_\.mux_top_track_44\.sky130_fd_sc_hd__mux2_1_1_X
*489 sb_0__0_\.mux_top_track_46\.out
*490 sb_0__0_\.mux_top_track_46\.sky130_fd_sc_hd__mux2_1_0_X
*491 sb_0__0_\.mux_top_track_46\.sky130_fd_sc_hd__mux2_1_1_X
*492 sb_0__0_\.mux_top_track_48\.out
*493 sb_0__0_\.mux_top_track_48\.sky130_fd_sc_hd__mux2_1_0_X
*494 sb_0__0_\.mux_top_track_48\.sky130_fd_sc_hd__mux2_1_1_X
*495 sb_0__0_\.mux_top_track_50\.out
*496 sb_0__0_\.mux_top_track_50\.sky130_fd_sc_hd__mux2_1_0_X
*497 sb_0__0_\.mux_top_track_50\.sky130_fd_sc_hd__mux2_1_1_X
*498 sb_0__0_\.mux_top_track_6\.out
*499 sb_0__0_\.mux_top_track_6\.sky130_fd_sc_hd__mux2_1_0_X
*500 sb_0__0_\.mux_top_track_6\.sky130_fd_sc_hd__mux2_1_1_X
*501 sb_0__0_\.mux_top_track_6\.sky130_fd_sc_hd__mux2_1_2_X
*502 sb_0__0_\.mux_top_track_8\.out
*503 sb_0__0_\.mux_top_track_8\.sky130_fd_sc_hd__mux2_1_0_X
*504 sb_0__0_\.mux_top_track_8\.sky130_fd_sc_hd__mux2_1_1_X
*505 ANTENNA_1
*506 ANTENNA_2
*507 ANTENNA_3
*508 ANTENNA_4
*509 ANTENNA_5
*510 ANTENNA_6
*511 ANTENNA_7
*512 ANTENNA__072__A
*513 ANTENNA__073__A
*514 ANTENNA__074__A
*515 ANTENNA__075__A
*516 ANTENNA__080__A
*517 ANTENNA__081__A
*518 ANTENNA__088__A
*519 ANTENNA__089__A
*520 ANTENNA__090__A
*521 ANTENNA__091__A
*522 ANTENNA__100__A
*523 ANTENNA__110__A
*524 ANTENNA__111__A
*525 ANTENNA__113__A
*526 ANTENNA__121__A
*527 ANTENNA_clkbuf_0_prog_clk_A
*528 ANTENNA_clkbuf_3_0__f_prog_clk_A
*529 ANTENNA_clkbuf_3_1__f_prog_clk_A
*530 ANTENNA_clkbuf_3_2__f_prog_clk_A
*531 ANTENNA_clkbuf_3_3__f_prog_clk_A
*532 ANTENNA_clkbuf_3_4__f_prog_clk_A
*533 ANTENNA_clkbuf_3_5__f_prog_clk_A
*534 ANTENNA_clkbuf_3_6__f_prog_clk_A
*535 ANTENNA_clkbuf_3_7__f_prog_clk_A
*536 ANTENNA_hold3_A
*537 ANTENNA_hold8_A
*538 ANTENNA_input10_A
*539 ANTENNA_input11_A
*540 ANTENNA_input12_A
*541 ANTENNA_input13_A
*542 ANTENNA_input14_A
*543 ANTENNA_input15_A
*544 ANTENNA_input16_A
*545 ANTENNA_input17_A
*546 ANTENNA_input18_A
*547 ANTENNA_input19_A
*548 ANTENNA_input20_A
*549 ANTENNA_input21_A
*550 ANTENNA_input22_A
*551 ANTENNA_input23_A
*552 ANTENNA_input24_A
*553 ANTENNA_input25_A
*554 ANTENNA_input26_A
*555 ANTENNA_input27_A
*556 ANTENNA_input28_A
*557 ANTENNA_input29_A
*558 ANTENNA_input2_A
*559 ANTENNA_input30_A
*560 ANTENNA_input31_A
*561 ANTENNA_input32_A
*562 ANTENNA_input33_A
*563 ANTENNA_input34_A
*564 ANTENNA_input35_A
*565 ANTENNA_input36_A
*566 ANTENNA_input37_A
*567 ANTENNA_input38_A
*568 ANTENNA_input39_A
*569 ANTENNA_input3_A
*570 ANTENNA_input40_A
*571 ANTENNA_input41_A
*572 ANTENNA_input42_A
*573 ANTENNA_input43_A
*574 ANTENNA_input44_A
*575 ANTENNA_input45_A
*576 ANTENNA_input46_A
*577 ANTENNA_input47_A
*578 ANTENNA_input48_A
*579 ANTENNA_input49_A
*580 ANTENNA_input4_A
*581 ANTENNA_input50_A
*582 ANTENNA_input51_A
*583 ANTENNA_input52_A
*584 ANTENNA_input53_A
*585 ANTENNA_input54_A
*586 ANTENNA_input55_A
*587 ANTENNA_input56_A
*588 ANTENNA_input57_A
*589 ANTENNA_input58_A
*590 ANTENNA_input59_A
*591 ANTENNA_input5_A
*592 ANTENNA_input60_A
*593 ANTENNA_input61_A
*594 ANTENNA_input63_A
*595 ANTENNA_input64_A
*596 ANTENNA_input65_A
*597 ANTENNA_input66_A
*598 ANTENNA_input67_A
*599 ANTENNA_input68_A
*600 ANTENNA_input69_A
*601 ANTENNA_input6_A
*602 ANTENNA_input70_A
*603 ANTENNA_input7_A
*604 ANTENNA_input8_A
*605 ANTENNA_input9_A
*606 ANTENNA_output103_A
*607 ANTENNA_output95_A
*608 ANTENNA_sb_0__0_\.mem_right_track_0\.sky130_fd_sc_hd__dfrtp_1_0__RESET_B
*609 ANTENNA_sb_0__0_\.mem_right_track_0\.sky130_fd_sc_hd__dfrtp_1_1__RESET_B
*610 ANTENNA_sb_0__0_\.mem_right_track_10\.sky130_fd_sc_hd__dfrtp_1_0__RESET_B
*611 ANTENNA_sb_0__0_\.mem_right_track_10\.sky130_fd_sc_hd__dfrtp_1_1__RESET_B
*612 ANTENNA_sb_0__0_\.mem_right_track_12\.sky130_fd_sc_hd__dfrtp_1_0__RESET_B
*613 ANTENNA_sb_0__0_\.mem_right_track_12\.sky130_fd_sc_hd__dfrtp_1_1__RESET_B
*614 ANTENNA_sb_0__0_\.mem_right_track_14\.sky130_fd_sc_hd__dfrtp_1_0__RESET_B
*615 ANTENNA_sb_0__0_\.mem_right_track_14\.sky130_fd_sc_hd__dfrtp_1_1__RESET_B
*616 ANTENNA_sb_0__0_\.mem_right_track_16\.sky130_fd_sc_hd__dfrtp_1_0__RESET_B
*617 ANTENNA_sb_0__0_\.mem_right_track_16\.sky130_fd_sc_hd__dfrtp_1_1__RESET_B
*618 ANTENNA_sb_0__0_\.mem_right_track_18\.sky130_fd_sc_hd__dfrtp_1_0__RESET_B
*619 ANTENNA_sb_0__0_\.mem_right_track_18\.sky130_fd_sc_hd__dfrtp_1_1__RESET_B
*620 ANTENNA_sb_0__0_\.mem_right_track_2\.sky130_fd_sc_hd__dfrtp_1_0__RESET_B
*621 ANTENNA_sb_0__0_\.mem_right_track_2\.sky130_fd_sc_hd__dfrtp_1_1__RESET_B
*622 ANTENNA_sb_0__0_\.mem_right_track_28\.sky130_fd_sc_hd__dfrtp_1_0__RESET_B
*623 ANTENNA_sb_0__0_\.mem_right_track_28\.sky130_fd_sc_hd__dfrtp_1_1__RESET_B
*624 ANTENNA_sb_0__0_\.mem_right_track_30\.sky130_fd_sc_hd__dfrtp_1_0__RESET_B
*625 ANTENNA_sb_0__0_\.mem_right_track_30\.sky130_fd_sc_hd__dfrtp_1_1__RESET_B
*626 ANTENNA_sb_0__0_\.mem_right_track_32\.sky130_fd_sc_hd__dfrtp_1_0__RESET_B
*627 ANTENNA_sb_0__0_\.mem_right_track_32\.sky130_fd_sc_hd__dfrtp_1_1__RESET_B
*628 ANTENNA_sb_0__0_\.mem_right_track_34\.sky130_fd_sc_hd__dfrtp_1_0__RESET_B
*629 ANTENNA_sb_0__0_\.mem_right_track_34\.sky130_fd_sc_hd__dfrtp_1_1__RESET_B
*630 ANTENNA_sb_0__0_\.mem_right_track_4\.sky130_fd_sc_hd__dfrtp_1_0__RESET_B
*631 ANTENNA_sb_0__0_\.mem_right_track_4\.sky130_fd_sc_hd__dfrtp_1_1__RESET_B
*632 ANTENNA_sb_0__0_\.mem_right_track_44\.sky130_fd_sc_hd__dfrtp_1_0__RESET_B
*633 ANTENNA_sb_0__0_\.mem_right_track_44\.sky130_fd_sc_hd__dfrtp_1_1__RESET_B
*634 ANTENNA_sb_0__0_\.mem_right_track_46\.sky130_fd_sc_hd__dfrtp_1_0__RESET_B
*635 ANTENNA_sb_0__0_\.mem_right_track_46\.sky130_fd_sc_hd__dfrtp_1_1__RESET_B
*636 ANTENNA_sb_0__0_\.mem_right_track_48\.sky130_fd_sc_hd__dfrtp_1_0__RESET_B
*637 ANTENNA_sb_0__0_\.mem_right_track_48\.sky130_fd_sc_hd__dfrtp_1_1__RESET_B
*638 ANTENNA_sb_0__0_\.mem_right_track_50\.sky130_fd_sc_hd__dfrtp_1_0__RESET_B
*639 ANTENNA_sb_0__0_\.mem_right_track_50\.sky130_fd_sc_hd__dfrtp_1_1__RESET_B
*640 ANTENNA_sb_0__0_\.mem_right_track_6\.sky130_fd_sc_hd__dfrtp_1_0__RESET_B
*641 ANTENNA_sb_0__0_\.mem_right_track_6\.sky130_fd_sc_hd__dfrtp_1_1__RESET_B
*642 ANTENNA_sb_0__0_\.mem_right_track_8\.sky130_fd_sc_hd__dfrtp_1_0__RESET_B
*643 ANTENNA_sb_0__0_\.mem_right_track_8\.sky130_fd_sc_hd__dfrtp_1_1__RESET_B
*644 ANTENNA_sb_0__0_\.mem_top_track_0\.sky130_fd_sc_hd__dfrtp_1_0__RESET_B
*645 ANTENNA_sb_0__0_\.mem_top_track_0\.sky130_fd_sc_hd__dfrtp_1_1__D
*646 ANTENNA_sb_0__0_\.mem_top_track_0\.sky130_fd_sc_hd__dfrtp_1_1__RESET_B
*647 ANTENNA_sb_0__0_\.mem_top_track_10\.sky130_fd_sc_hd__dfrtp_1_0__RESET_B
*648 ANTENNA_sb_0__0_\.mem_top_track_10\.sky130_fd_sc_hd__dfrtp_1_1__RESET_B
*649 ANTENNA_sb_0__0_\.mem_top_track_12\.sky130_fd_sc_hd__dfrtp_1_0__RESET_B
*650 ANTENNA_sb_0__0_\.mem_top_track_12\.sky130_fd_sc_hd__dfrtp_1_1__RESET_B
*651 ANTENNA_sb_0__0_\.mem_top_track_14\.sky130_fd_sc_hd__dfrtp_1_0__RESET_B
*652 ANTENNA_sb_0__0_\.mem_top_track_14\.sky130_fd_sc_hd__dfrtp_1_1__RESET_B
*653 ANTENNA_sb_0__0_\.mem_top_track_16\.sky130_fd_sc_hd__dfrtp_1_0__RESET_B
*654 ANTENNA_sb_0__0_\.mem_top_track_16\.sky130_fd_sc_hd__dfrtp_1_1__RESET_B
*655 ANTENNA_sb_0__0_\.mem_top_track_18\.sky130_fd_sc_hd__dfrtp_1_0__RESET_B
*656 ANTENNA_sb_0__0_\.mem_top_track_18\.sky130_fd_sc_hd__dfrtp_1_1__RESET_B
*657 ANTENNA_sb_0__0_\.mem_top_track_2\.sky130_fd_sc_hd__dfrtp_1_0__RESET_B
*658 ANTENNA_sb_0__0_\.mem_top_track_2\.sky130_fd_sc_hd__dfrtp_1_1__RESET_B
*659 ANTENNA_sb_0__0_\.mem_top_track_28\.sky130_fd_sc_hd__dfrtp_1_0__RESET_B
*660 ANTENNA_sb_0__0_\.mem_top_track_28\.sky130_fd_sc_hd__dfrtp_1_1__RESET_B
*661 ANTENNA_sb_0__0_\.mem_top_track_30\.sky130_fd_sc_hd__dfrtp_1_0__RESET_B
*662 ANTENNA_sb_0__0_\.mem_top_track_30\.sky130_fd_sc_hd__dfrtp_1_1__RESET_B
*663 ANTENNA_sb_0__0_\.mem_top_track_32\.sky130_fd_sc_hd__dfrtp_1_0__RESET_B
*664 ANTENNA_sb_0__0_\.mem_top_track_32\.sky130_fd_sc_hd__dfrtp_1_1__RESET_B
*665 ANTENNA_sb_0__0_\.mem_top_track_34\.sky130_fd_sc_hd__dfrtp_1_0__RESET_B
*666 ANTENNA_sb_0__0_\.mem_top_track_34\.sky130_fd_sc_hd__dfrtp_1_1__RESET_B
*667 ANTENNA_sb_0__0_\.mem_top_track_4\.sky130_fd_sc_hd__dfrtp_1_0__RESET_B
*668 ANTENNA_sb_0__0_\.mem_top_track_4\.sky130_fd_sc_hd__dfrtp_1_1__RESET_B
*669 ANTENNA_sb_0__0_\.mem_top_track_44\.sky130_fd_sc_hd__dfrtp_1_0__RESET_B
*670 ANTENNA_sb_0__0_\.mem_top_track_44\.sky130_fd_sc_hd__dfrtp_1_1__RESET_B
*671 ANTENNA_sb_0__0_\.mem_top_track_46\.sky130_fd_sc_hd__dfrtp_1_0__RESET_B
*672 ANTENNA_sb_0__0_\.mem_top_track_46\.sky130_fd_sc_hd__dfrtp_1_1__RESET_B
*673 ANTENNA_sb_0__0_\.mem_top_track_48\.sky130_fd_sc_hd__dfrtp_1_0__RESET_B
*674 ANTENNA_sb_0__0_\.mem_top_track_48\.sky130_fd_sc_hd__dfrtp_1_1__RESET_B
*675 ANTENNA_sb_0__0_\.mem_top_track_50\.sky130_fd_sc_hd__dfrtp_1_0__RESET_B
*676 ANTENNA_sb_0__0_\.mem_top_track_50\.sky130_fd_sc_hd__dfrtp_1_1__RESET_B
*677 ANTENNA_sb_0__0_\.mem_top_track_6\.sky130_fd_sc_hd__dfrtp_1_0__RESET_B
*678 ANTENNA_sb_0__0_\.mem_top_track_6\.sky130_fd_sc_hd__dfrtp_1_1__RESET_B
*679 ANTENNA_sb_0__0_\.mem_top_track_8\.sky130_fd_sc_hd__dfrtp_1_0__RESET_B
*680 ANTENNA_sb_0__0_\.mem_top_track_8\.sky130_fd_sc_hd__dfrtp_1_1__RESET_B
*681 ANTENNA_sb_0__0_\.mux_right_track_0\.mux_l1_in_0__A1
*682 ANTENNA_sb_0__0_\.mux_right_track_10\.mux_l1_in_0__A1
*683 ANTENNA_sb_0__0_\.mux_right_track_12\.mux_l1_in_0__A1
*684 ANTENNA_sb_0__0_\.mux_right_track_12\.mux_l2_in_0__A0
*685 ANTENNA_sb_0__0_\.mux_right_track_14\.mux_l1_in_0__A1
*686 ANTENNA_sb_0__0_\.mux_right_track_16\.mux_l1_in_0__A1
*687 ANTENNA_sb_0__0_\.mux_right_track_18\.mux_l1_in_0__A1
*688 ANTENNA_sb_0__0_\.mux_right_track_2\.mux_l1_in_0__A1
*689 ANTENNA_sb_0__0_\.mux_right_track_2\.mux_l2_in_0__A0
*690 ANTENNA_sb_0__0_\.mux_right_track_2\.sky130_fd_sc_hd__buf_4_0__A
*691 ANTENNA_sb_0__0_\.mux_right_track_34\.mux_l1_in_0__A1
*692 ANTENNA_sb_0__0_\.mux_right_track_4\.mux_l2_in_0__A0
*693 ANTENNA_sb_0__0_\.mux_right_track_48\.mux_l1_in_0__A1
*694 ANTENNA_sb_0__0_\.mux_right_track_50\.mux_l1_in_0__A1
*695 ANTENNA_sb_0__0_\.mux_right_track_6\.sky130_fd_sc_hd__buf_4_0__A
*696 ANTENNA_sb_0__0_\.mux_right_track_8\.mux_l1_in_0__A1
*697 ANTENNA_sb_0__0_\.mux_top_track_0\.mux_l1_in_0__A0
*698 ANTENNA_sb_0__0_\.mux_top_track_0\.mux_l1_in_0__A1
*699 ANTENNA_sb_0__0_\.mux_top_track_0\.mux_l1_in_0__S
*700 ANTENNA_sb_0__0_\.mux_top_track_0\.mux_l1_in_1__S
*701 ANTENNA_sb_0__0_\.mux_top_track_10\.mux_l1_in_0__A1
*702 ANTENNA_sb_0__0_\.mux_top_track_12\.mux_l1_in_0__A1
*703 ANTENNA_sb_0__0_\.mux_top_track_14\.mux_l1_in_0__A1
*704 ANTENNA_sb_0__0_\.mux_top_track_16\.mux_l1_in_0__A1
*705 ANTENNA_sb_0__0_\.mux_top_track_18\.mux_l1_in_0__A1
*706 ANTENNA_sb_0__0_\.mux_top_track_2\.mux_l1_in_0__A0
*707 ANTENNA_sb_0__0_\.mux_top_track_2\.mux_l1_in_0__A1
*708 ANTENNA_sb_0__0_\.mux_top_track_28\.mux_l1_in_0__A1
*709 ANTENNA_sb_0__0_\.mux_top_track_30\.mux_l1_in_0__A1
*710 ANTENNA_sb_0__0_\.mux_top_track_32\.mux_l1_in_0__A1
*711 ANTENNA_sb_0__0_\.mux_top_track_34\.mux_l1_in_0__A1
*712 ANTENNA_sb_0__0_\.mux_top_track_4\.mux_l1_in_0__A0
*713 ANTENNA_sb_0__0_\.mux_top_track_4\.mux_l1_in_0__A1
*714 ANTENNA_sb_0__0_\.mux_top_track_44\.mux_l1_in_0__A1
*715 ANTENNA_sb_0__0_\.mux_top_track_46\.mux_l1_in_0__A1
*716 ANTENNA_sb_0__0_\.mux_top_track_48\.mux_l1_in_0__A1
*717 ANTENNA_sb_0__0_\.mux_top_track_50\.mux_l1_in_0__A0
*718 ANTENNA_sb_0__0_\.mux_top_track_50\.mux_l1_in_0__A1
*719 ANTENNA_sb_0__0_\.mux_top_track_6\.mux_l1_in_0__A0
*720 ANTENNA_sb_0__0_\.mux_top_track_6\.mux_l1_in_0__A1
*721 ANTENNA_sb_0__0_\.mux_top_track_6\.sky130_fd_sc_hd__buf_4_0__A
*722 ANTENNA_sb_0__0_\.mux_top_track_8\.mux_l1_in_0__A1
*723 FILLER_0_109
*724 FILLER_0_113
*725 FILLER_0_125
*726 FILLER_0_137
*727 FILLER_0_141
*728 FILLER_0_15
*729 FILLER_0_153
*730 FILLER_0_165
*731 FILLER_0_169
*732 FILLER_0_181
*733 FILLER_0_193
*734 FILLER_0_197
*735 FILLER_0_201
*736 FILLER_0_204
*737 FILLER_0_222
*738 FILLER_0_225
*739 FILLER_0_233
*740 FILLER_0_250
*741 FILLER_0_253
*742 FILLER_0_265
*743 FILLER_0_27
*744 FILLER_0_29
*745 FILLER_0_3
*746 FILLER_0_41
*747 FILLER_0_53
*748 FILLER_0_57
*749 FILLER_0_62
*750 FILLER_0_74
*751 FILLER_0_82
*752 FILLER_0_85
*753 FILLER_0_97
*754 FILLER_10_109
*755 FILLER_10_121
*756 FILLER_10_133
*757 FILLER_10_139
*758 FILLER_10_141
*759 FILLER_10_15
*760 FILLER_10_153
*761 FILLER_10_165
*762 FILLER_10_177
*763 FILLER_10_189
*764 FILLER_10_195
*765 FILLER_10_197
*766 FILLER_10_205
*767 FILLER_10_209
*768 FILLER_10_216
*769 FILLER_10_223
*770 FILLER_10_230
*771 FILLER_10_250
*772 FILLER_10_253
*773 FILLER_10_259
*774 FILLER_10_265
*775 FILLER_10_27
*776 FILLER_10_29
*777 FILLER_10_3
*778 FILLER_10_41
*779 FILLER_10_53
*780 FILLER_10_65
*781 FILLER_10_77
*782 FILLER_10_83
*783 FILLER_10_85
*784 FILLER_10_97
*785 FILLER_11_105
*786 FILLER_11_111
*787 FILLER_11_113
*788 FILLER_11_125
*789 FILLER_11_137
*790 FILLER_11_149
*791 FILLER_11_15
*792 FILLER_11_161
*793 FILLER_11_167
*794 FILLER_11_169
*795 FILLER_11_181
*796 FILLER_11_193
*797 FILLER_11_202
*798 FILLER_11_209
*799 FILLER_11_216
*800 FILLER_11_222
*801 FILLER_11_225
*802 FILLER_11_244
*803 FILLER_11_264
*804 FILLER_11_27
*805 FILLER_11_3
*806 FILLER_11_39
*807 FILLER_11_51
*808 FILLER_11_55
*809 FILLER_11_57
*810 FILLER_11_69
*811 FILLER_11_81
*812 FILLER_11_93
*813 FILLER_12_117
*814 FILLER_12_121
*815 FILLER_12_133
*816 FILLER_12_139
*817 FILLER_12_141
*818 FILLER_12_15
*819 FILLER_12_153
*820 FILLER_12_165
*821 FILLER_12_177
*822 FILLER_12_189
*823 FILLER_12_193
*824 FILLER_12_197
*825 FILLER_12_209
*826 FILLER_12_213
*827 FILLER_12_217
*828 FILLER_12_222
*829 FILLER_12_226
*830 FILLER_12_230
*831 FILLER_12_250
*832 FILLER_12_253
*833 FILLER_12_259
*834 FILLER_12_265
*835 FILLER_12_27
*836 FILLER_12_29
*837 FILLER_12_3
*838 FILLER_12_41
*839 FILLER_12_53
*840 FILLER_12_65
*841 FILLER_12_77
*842 FILLER_12_83
*843 FILLER_12_85
*844 FILLER_13_105
*845 FILLER_13_111
*846 FILLER_13_113
*847 FILLER_13_125
*848 FILLER_13_137
*849 FILLER_13_149
*850 FILLER_13_15
*851 FILLER_13_161
*852 FILLER_13_167
*853 FILLER_13_169
*854 FILLER_13_181
*855 FILLER_13_187
*856 FILLER_13_194
*857 FILLER_13_201
*858 FILLER_13_208
*859 FILLER_13_212
*860 FILLER_13_216
*861 FILLER_13_225
*862 FILLER_13_244
*863 FILLER_13_264
*864 FILLER_13_27
*865 FILLER_13_3
*866 FILLER_13_39
*867 FILLER_13_51
*868 FILLER_13_55
*869 FILLER_13_57
*870 FILLER_13_69
*871 FILLER_13_81
*872 FILLER_13_93
*873 FILLER_14_109
*874 FILLER_14_121
*875 FILLER_14_133
*876 FILLER_14_139
*877 FILLER_14_141
*878 FILLER_14_15
*879 FILLER_14_153
*880 FILLER_14_165
*881 FILLER_14_180
*882 FILLER_14_194
*883 FILLER_14_197
*884 FILLER_14_202
*885 FILLER_14_209
*886 FILLER_14_216
*887 FILLER_14_241
*888 FILLER_14_245
*889 FILLER_14_250
*890 FILLER_14_253
*891 FILLER_14_264
*892 FILLER_14_27
*893 FILLER_14_29
*894 FILLER_14_3
*895 FILLER_14_41
*896 FILLER_14_53
*897 FILLER_14_65
*898 FILLER_14_77
*899 FILLER_14_83
*900 FILLER_14_85
*901 FILLER_14_97
*902 FILLER_15_105
*903 FILLER_15_111
*904 FILLER_15_113
*905 FILLER_15_125
*906 FILLER_15_137
*907 FILLER_15_149
*908 FILLER_15_15
*909 FILLER_15_157
*910 FILLER_15_161
*911 FILLER_15_165
*912 FILLER_15_169
*913 FILLER_15_175
*914 FILLER_15_180
*915 FILLER_15_187
*916 FILLER_15_194
*917 FILLER_15_201
*918 FILLER_15_208
*919 FILLER_15_215
*920 FILLER_15_222
*921 FILLER_15_225
*922 FILLER_15_244
*923 FILLER_15_264
*924 FILLER_15_27
*925 FILLER_15_3
*926 FILLER_15_39
*927 FILLER_15_51
*928 FILLER_15_55
*929 FILLER_15_57
*930 FILLER_15_69
*931 FILLER_15_81
*932 FILLER_15_93
*933 FILLER_16_109
*934 FILLER_16_121
*935 FILLER_16_133
*936 FILLER_16_139
*937 FILLER_16_141
*938 FILLER_16_149
*939 FILLER_16_15
*940 FILLER_16_155
*941 FILLER_16_159
*942 FILLER_16_166
*943 FILLER_16_173
*944 FILLER_16_180
*945 FILLER_16_187
*946 FILLER_16_194
*947 FILLER_16_201
*948 FILLER_16_208
*949 FILLER_16_214
*950 FILLER_16_219
*951 FILLER_16_226
*952 FILLER_16_232
*953 FILLER_16_250
*954 FILLER_16_253
*955 FILLER_16_258
*956 FILLER_16_27
*957 FILLER_16_29