*SPEF "ieee 1481-1999"
*DESIGN "cbx_1__0_"
*DATE "11:11:11 Fri 11 11, 1111"
*VENDOR "OpenRCX"
*PROGRAM "Parallel Extraction"
*VERSION "1.0"
*DESIGN_FLOW "NAME_SCOPE LOCAL" "PIN_CAP NONE"
*DIVIDER /
*DELIMITER :
*BUS_DELIMITER []
*T_UNIT 1 NS
*C_UNIT 1 PF
*R_UNIT 1 OHM
*L_UNIT 1 HENRY

*NAME_MAP
*1 IO_ISOL_N
*2 SC_IN_BOT
*3 SC_IN_TOP
*4 SC_OUT_BOT
*5 SC_OUT_TOP
*8 bottom_grid_pin_0_
*9 bottom_grid_pin_10_
*10 bottom_grid_pin_12_
*11 bottom_grid_pin_14_
*12 bottom_grid_pin_16_
*13 bottom_grid_pin_2_
*14 bottom_grid_pin_4_
*15 bottom_grid_pin_6_
*16 bottom_grid_pin_8_
*17 ccff_head
*18 ccff_tail
*19 chanx_left_in[0]
*20 chanx_left_in[10]
*21 chanx_left_in[11]
*22 chanx_left_in[12]
*23 chanx_left_in[13]
*24 chanx_left_in[14]
*25 chanx_left_in[15]
*26 chanx_left_in[16]
*27 chanx_left_in[17]
*28 chanx_left_in[18]
*29 chanx_left_in[19]
*30 chanx_left_in[1]
*31 chanx_left_in[2]
*32 chanx_left_in[3]
*33 chanx_left_in[4]
*34 chanx_left_in[5]
*35 chanx_left_in[6]
*36 chanx_left_in[7]
*37 chanx_left_in[8]
*38 chanx_left_in[9]
*39 chanx_left_out[0]
*40 chanx_left_out[10]
*41 chanx_left_out[11]
*42 chanx_left_out[12]
*43 chanx_left_out[13]
*44 chanx_left_out[14]
*45 chanx_left_out[15]
*46 chanx_left_out[16]
*47 chanx_left_out[17]
*48 chanx_left_out[18]
*49 chanx_left_out[19]
*50 chanx_left_out[1]
*51 chanx_left_out[2]
*52 chanx_left_out[3]
*53 chanx_left_out[4]
*54 chanx_left_out[5]
*55 chanx_left_out[6]
*56 chanx_left_out[7]
*57 chanx_left_out[8]
*58 chanx_left_out[9]
*59 chanx_right_in[0]
*60 chanx_right_in[10]
*61 chanx_right_in[11]
*62 chanx_right_in[12]
*63 chanx_right_in[13]
*64 chanx_right_in[14]
*65 chanx_right_in[15]
*66 chanx_right_in[16]
*67 chanx_right_in[17]
*68 chanx_right_in[18]
*69 chanx_right_in[19]
*70 chanx_right_in[1]
*71 chanx_right_in[2]
*72 chanx_right_in[3]
*73 chanx_right_in[4]
*74 chanx_right_in[5]
*75 chanx_right_in[6]
*76 chanx_right_in[7]
*77 chanx_right_in[8]
*78 chanx_right_in[9]
*79 chanx_right_out[0]
*80 chanx_right_out[10]
*81 chanx_right_out[11]
*82 chanx_right_out[12]
*83 chanx_right_out[13]
*84 chanx_right_out[14]
*85 chanx_right_out[15]
*86 chanx_right_out[16]
*87 chanx_right_out[17]
*88 chanx_right_out[18]
*89 chanx_right_out[19]
*90 chanx_right_out[1]
*91 chanx_right_out[2]
*92 chanx_right_out[3]
*93 chanx_right_out[4]
*94 chanx_right_out[5]
*95 chanx_right_out[6]
*96 chanx_right_out[7]
*97 chanx_right_out[8]
*98 chanx_right_out[9]
*99 gfpga_pad_EMBEDDED_IO_HD_SOC_DIR[0]
*100 gfpga_pad_EMBEDDED_IO_HD_SOC_DIR[1]
*101 gfpga_pad_EMBEDDED_IO_HD_SOC_DIR[2]
*102 gfpga_pad_EMBEDDED_IO_HD_SOC_DIR[3]
*103 gfpga_pad_EMBEDDED_IO_HD_SOC_DIR[4]
*104 gfpga_pad_EMBEDDED_IO_HD_SOC_DIR[5]
*105 gfpga_pad_EMBEDDED_IO_HD_SOC_DIR[6]
*106 gfpga_pad_EMBEDDED_IO_HD_SOC_DIR[7]
*107 gfpga_pad_EMBEDDED_IO_HD_SOC_DIR[8]
*108 gfpga_pad_EMBEDDED_IO_HD_SOC_IN[0]
*109 gfpga_pad_EMBEDDED_IO_HD_SOC_IN[1]
*110 gfpga_pad_EMBEDDED_IO_HD_SOC_IN[2]
*111 gfpga_pad_EMBEDDED_IO_HD_SOC_IN[3]
*112 gfpga_pad_EMBEDDED_IO_HD_SOC_IN[4]
*113 gfpga_pad_EMBEDDED_IO_HD_SOC_IN[5]
*114 gfpga_pad_EMBEDDED_IO_HD_SOC_IN[6]
*115 gfpga_pad_EMBEDDED_IO_HD_SOC_IN[7]
*116 gfpga_pad_EMBEDDED_IO_HD_SOC_IN[8]
*117 gfpga_pad_EMBEDDED_IO_HD_SOC_OUT[0]
*118 gfpga_pad_EMBEDDED_IO_HD_SOC_OUT[1]
*119 gfpga_pad_EMBEDDED_IO_HD_SOC_OUT[2]
*120 gfpga_pad_EMBEDDED_IO_HD_SOC_OUT[3]
*121 gfpga_pad_EMBEDDED_IO_HD_SOC_OUT[4]
*122 gfpga_pad_EMBEDDED_IO_HD_SOC_OUT[5]
*123 gfpga_pad_EMBEDDED_IO_HD_SOC_OUT[6]
*124 gfpga_pad_EMBEDDED_IO_HD_SOC_OUT[7]
*125 gfpga_pad_EMBEDDED_IO_HD_SOC_OUT[8]
*126 prog_clk_0_N_in
*127 prog_clk_0_W_out
*128 top_width_0_height_0__pin_0_
*129 top_width_0_height_0__pin_10_
*130 top_width_0_height_0__pin_11_lower
*131 top_width_0_height_0__pin_11_upper
*132 top_width_0_height_0__pin_12_
*133 top_width_0_height_0__pin_13_lower
*134 top_width_0_height_0__pin_13_upper
*135 top_width_0_height_0__pin_14_
*136 top_width_0_height_0__pin_15_lower
*137 top_width_0_height_0__pin_15_upper
*138 top_width_0_height_0__pin_16_
*139 top_width_0_height_0__pin_17_lower
*140 top_width_0_height_0__pin_17_upper
*141 top_width_0_height_0__pin_1_lower
*142 top_width_0_height_0__pin_1_upper
*143 top_width_0_height_0__pin_2_
*144 top_width_0_height_0__pin_3_lower
*145 top_width_0_height_0__pin_3_upper
*146 top_width_0_height_0__pin_4_
*147 top_width_0_height_0__pin_5_lower
*148 top_width_0_height_0__pin_5_upper
*149 top_width_0_height_0__pin_6_
*150 top_width_0_height_0__pin_7_lower
*151 top_width_0_height_0__pin_7_upper
*152 top_width_0_height_0__pin_8_
*153 top_width_0_height_0__pin_9_lower
*154 top_width_0_height_0__pin_9_upper
*155 logical_tile_io_mode_io__0\.ccff_head
*156 logical_tile_io_mode_io__0\.ccff_tail
*157 logical_tile_io_mode_io__0\.gfpga_pad_EMBEDDED_IO_HD_SOC_DIR
*158 logical_tile_io_mode_io__0\.gfpga_pad_EMBEDDED_IO_HD_SOC_OUT
*159 logical_tile_io_mode_io__0\.ltile_phy_iopad_0\.EMBEDDED_IO_HD_0_\.SOC_DIR_N
*160 logical_tile_io_mode_io__0\.ltile_phy_iopad_0\.EMBEDDED_IO_HD_sky130_fd_sc_hd__dfxtp_1_mem\.prog_clk
*161 logical_tile_io_mode_io__1\.ccff_tail
*162 logical_tile_io_mode_io__1\.gfpga_pad_EMBEDDED_IO_HD_SOC_DIR
*163 logical_tile_io_mode_io__1\.gfpga_pad_EMBEDDED_IO_HD_SOC_OUT
*164 logical_tile_io_mode_io__1\.ltile_phy_iopad_0\.EMBEDDED_IO_HD_0_\.SOC_DIR_N
*165 logical_tile_io_mode_io__2\.ccff_tail
*166 logical_tile_io_mode_io__2\.gfpga_pad_EMBEDDED_IO_HD_SOC_DIR
*167 logical_tile_io_mode_io__2\.gfpga_pad_EMBEDDED_IO_HD_SOC_OUT
*168 logical_tile_io_mode_io__2\.ltile_phy_iopad_0\.EMBEDDED_IO_HD_0_\.SOC_DIR_N
*169 logical_tile_io_mode_io__3\.ccff_tail
*170 logical_tile_io_mode_io__3\.gfpga_pad_EMBEDDED_IO_HD_SOC_DIR
*171 logical_tile_io_mode_io__3\.gfpga_pad_EMBEDDED_IO_HD_SOC_OUT
*172 logical_tile_io_mode_io__3\.ltile_phy_iopad_0\.EMBEDDED_IO_HD_0_\.SOC_DIR_N
*173 logical_tile_io_mode_io__4\.ccff_tail
*174 logical_tile_io_mode_io__4\.gfpga_pad_EMBEDDED_IO_HD_SOC_DIR
*175 logical_tile_io_mode_io__4\.gfpga_pad_EMBEDDED_IO_HD_SOC_OUT
*176 logical_tile_io_mode_io__4\.ltile_phy_iopad_0\.EMBEDDED_IO_HD_0_\.SOC_DIR_N
*177 logical_tile_io_mode_io__5\.ccff_tail
*178 logical_tile_io_mode_io__5\.gfpga_pad_EMBEDDED_IO_HD_SOC_DIR
*179 logical_tile_io_mode_io__5\.gfpga_pad_EMBEDDED_IO_HD_SOC_OUT
*180 logical_tile_io_mode_io__5\.ltile_phy_iopad_0\.EMBEDDED_IO_HD_0_\.SOC_DIR_N
*181 logical_tile_io_mode_io__6\.ccff_tail
*182 logical_tile_io_mode_io__6\.gfpga_pad_EMBEDDED_IO_HD_SOC_DIR
*183 logical_tile_io_mode_io__6\.gfpga_pad_EMBEDDED_IO_HD_SOC_OUT
*184 logical_tile_io_mode_io__6\.ltile_phy_iopad_0\.EMBEDDED_IO_HD_0_\.SOC_DIR_N
*185 logical_tile_io_mode_io__7\.ccff_tail
*186 logical_tile_io_mode_io__7\.gfpga_pad_EMBEDDED_IO_HD_SOC_DIR
*187 logical_tile_io_mode_io__7\.gfpga_pad_EMBEDDED_IO_HD_SOC_OUT
*188 logical_tile_io_mode_io__7\.ltile_phy_iopad_0\.EMBEDDED_IO_HD_0_\.SOC_DIR_N
*189 logical_tile_io_mode_io__8\.gfpga_pad_EMBEDDED_IO_HD_SOC_DIR
*190 logical_tile_io_mode_io__8\.gfpga_pad_EMBEDDED_IO_HD_SOC_OUT
*191 logical_tile_io_mode_io__8\.ltile_phy_iopad_0\.EMBEDDED_IO_HD_0_\.SOC_DIR_N
*192 mem_top_ipin_0\.ccff_tail
*193 mem_top_ipin_0\.mem_out\[0\]
*194 mem_top_ipin_0\.mem_out\[1\]
*195 mem_top_ipin_0\.mem_out\[2\]
*196 mem_top_ipin_1\.ccff_tail
*197 mem_top_ipin_1\.mem_out\[0\]
*198 mem_top_ipin_1\.mem_out\[1\]
*199 mem_top_ipin_1\.mem_out\[2\]
*200 mem_top_ipin_2\.ccff_tail
*201 mem_top_ipin_2\.mem_out\[0\]
*202 mem_top_ipin_2\.mem_out\[1\]
*203 mem_top_ipin_2\.mem_out\[2\]
*204 mem_top_ipin_3\.ccff_tail
*205 mem_top_ipin_3\.mem_out\[0\]
*206 mem_top_ipin_3\.mem_out\[1\]
*207 mem_top_ipin_3\.mem_out\[2\]
*208 mem_top_ipin_4\.ccff_tail
*209 mem_top_ipin_4\.mem_out\[0\]
*210 mem_top_ipin_4\.mem_out\[1\]
*211 mem_top_ipin_4\.mem_out\[2\]
*212 mem_top_ipin_5\.ccff_tail
*213 mem_top_ipin_5\.mem_out\[0\]
*214 mem_top_ipin_5\.mem_out\[1\]
*215 mem_top_ipin_5\.mem_out\[2\]
*216 mem_top_ipin_6\.ccff_tail
*217 mem_top_ipin_6\.mem_out\[0\]
*218 mem_top_ipin_6\.mem_out\[1\]
*219 mem_top_ipin_6\.mem_out\[2\]
*220 mem_top_ipin_7\.ccff_tail
*221 mem_top_ipin_7\.mem_out\[0\]
*222 mem_top_ipin_7\.mem_out\[1\]
*223 mem_top_ipin_7\.mem_out\[2\]
*224 mem_top_ipin_8\.mem_out\[0\]
*225 mem_top_ipin_8\.mem_out\[1\]
*226 mem_top_ipin_8\.mem_out\[2\]
*227 mux_top_ipin_0\.sky130_fd_sc_hd__mux2_1_0_X
*228 mux_top_ipin_0\.sky130_fd_sc_hd__mux2_1_1_X
*229 mux_top_ipin_0\.sky130_fd_sc_hd__mux2_1_2_X
*230 mux_top_ipin_0\.sky130_fd_sc_hd__mux2_1_3_X
*231 mux_top_ipin_0\.sky130_fd_sc_hd__mux2_1_4_X
*232 mux_top_ipin_0\.sky130_fd_sc_hd__mux2_1_5_X
*233 mux_top_ipin_0\.sky130_fd_sc_hd__mux2_1_6_X
*234 mux_top_ipin_0\.sky130_fd_sc_hd__mux2_1_7_X
*235 mux_top_ipin_0\.sky130_fd_sc_hd__mux2_1_8_X
*236 mux_top_ipin_0\.sky130_fd_sc_hd__mux2_1_9_X
*237 mux_top_ipin_1\.sky130_fd_sc_hd__mux2_1_0_X
*238 mux_top_ipin_1\.sky130_fd_sc_hd__mux2_1_1_X
*239 mux_top_ipin_1\.sky130_fd_sc_hd__mux2_1_2_X
*240 mux_top_ipin_1\.sky130_fd_sc_hd__mux2_1_3_X
*241 mux_top_ipin_1\.sky130_fd_sc_hd__mux2_1_4_X
*242 mux_top_ipin_1\.sky130_fd_sc_hd__mux2_1_5_X
*243 mux_top_ipin_1\.sky130_fd_sc_hd__mux2_1_6_X
*244 mux_top_ipin_1\.sky130_fd_sc_hd__mux2_1_7_X
*245 mux_top_ipin_1\.sky130_fd_sc_hd__mux2_1_8_X
*246 mux_top_ipin_1\.sky130_fd_sc_hd__mux2_1_9_X
*247 mux_top_ipin_2\.sky130_fd_sc_hd__mux2_1_0_X
*248 mux_top_ipin_2\.sky130_fd_sc_hd__mux2_1_1_X
*249 mux_top_ipin_2\.sky130_fd_sc_hd__mux2_1_2_X
*250 mux_top_ipin_2\.sky130_fd_sc_hd__mux2_1_3_X
*251 mux_top_ipin_2\.sky130_fd_sc_hd__mux2_1_4_X
*252 mux_top_ipin_2\.sky130_fd_sc_hd__mux2_1_5_X
*253 mux_top_ipin_2\.sky130_fd_sc_hd__mux2_1_6_X
*254 mux_top_ipin_2\.sky130_fd_sc_hd__mux2_1_7_X
*255 mux_top_ipin_2\.sky130_fd_sc_hd__mux2_1_8_X
*256 mux_top_ipin_2\.sky130_fd_sc_hd__mux2_1_9_X
*257 mux_top_ipin_3\.sky130_fd_sc_hd__mux2_1_0_X
*258 mux_top_ipin_3\.sky130_fd_sc_hd__mux2_1_1_X
*259 mux_top_ipin_3\.sky130_fd_sc_hd__mux2_1_2_X
*260 mux_top_ipin_3\.sky130_fd_sc_hd__mux2_1_3_X
*261 mux_top_ipin_3\.sky130_fd_sc_hd__mux2_1_4_X
*262 mux_top_ipin_3\.sky130_fd_sc_hd__mux2_1_5_X
*263 mux_top_ipin_3\.sky130_fd_sc_hd__mux2_1_6_X
*264 mux_top_ipin_3\.sky130_fd_sc_hd__mux2_1_7_X
*265 mux_top_ipin_3\.sky130_fd_sc_hd__mux2_1_8_X
*266 mux_top_ipin_3\.sky130_fd_sc_hd__mux2_1_9_X
*267 mux_top_ipin_4\.sky130_fd_sc_hd__mux2_1_0_X
*268 mux_top_ipin_4\.sky130_fd_sc_hd__mux2_1_1_X
*269 mux_top_ipin_4\.sky130_fd_sc_hd__mux2_1_2_X
*270 mux_top_ipin_4\.sky130_fd_sc_hd__mux2_1_3_X
*271 mux_top_ipin_4\.sky130_fd_sc_hd__mux2_1_4_X
*272 mux_top_ipin_4\.sky130_fd_sc_hd__mux2_1_5_X
*273 mux_top_ipin_4\.sky130_fd_sc_hd__mux2_1_6_X
*274 mux_top_ipin_4\.sky130_fd_sc_hd__mux2_1_7_X
*275 mux_top_ipin_4\.sky130_fd_sc_hd__mux2_1_8_X
*276 mux_top_ipin_4\.sky130_fd_sc_hd__mux2_1_9_X
*277 mux_top_ipin_5\.sky130_fd_sc_hd__mux2_1_0_X
*278 mux_top_ipin_5\.sky130_fd_sc_hd__mux2_1_1_X
*279 mux_top_ipin_5\.sky130_fd_sc_hd__mux2_1_2_X
*280 mux_top_ipin_5\.sky130_fd_sc_hd__mux2_1_3_X
*281 mux_top_ipin_5\.sky130_fd_sc_hd__mux2_1_4_X
*282 mux_top_ipin_5\.sky130_fd_sc_hd__mux2_1_5_X
*283 mux_top_ipin_5\.sky130_fd_sc_hd__mux2_1_6_X
*284 mux_top_ipin_5\.sky130_fd_sc_hd__mux2_1_7_X
*285 mux_top_ipin_5\.sky130_fd_sc_hd__mux2_1_8_X
*286 mux_top_ipin_5\.sky130_fd_sc_hd__mux2_1_9_X
*287 mux_top_ipin_6\.sky130_fd_sc_hd__mux2_1_0_X
*288 mux_top_ipin_6\.sky130_fd_sc_hd__mux2_1_1_X
*289 mux_top_ipin_6\.sky130_fd_sc_hd__mux2_1_2_X
*290 mux_top_ipin_6\.sky130_fd_sc_hd__mux2_1_3_X
*291 mux_top_ipin_6\.sky130_fd_sc_hd__mux2_1_4_X
*292 mux_top_ipin_6\.sky130_fd_sc_hd__mux2_1_5_X
*293 mux_top_ipin_6\.sky130_fd_sc_hd__mux2_1_6_X
*294 mux_top_ipin_6\.sky130_fd_sc_hd__mux2_1_7_X
*295 mux_top_ipin_6\.sky130_fd_sc_hd__mux2_1_8_X
*296 mux_top_ipin_6\.sky130_fd_sc_hd__mux2_1_9_X
*297 mux_top_ipin_7\.sky130_fd_sc_hd__mux2_1_0_X
*298 mux_top_ipin_7\.sky130_fd_sc_hd__mux2_1_1_X
*299 mux_top_ipin_7\.sky130_fd_sc_hd__mux2_1_2_X
*300 mux_top_ipin_7\.sky130_fd_sc_hd__mux2_1_3_X
*301 mux_top_ipin_7\.sky130_fd_sc_hd__mux2_1_4_X
*302 mux_top_ipin_7\.sky130_fd_sc_hd__mux2_1_5_X
*303 mux_top_ipin_7\.sky130_fd_sc_hd__mux2_1_6_X
*304 mux_top_ipin_7\.sky130_fd_sc_hd__mux2_1_7_X
*305 mux_top_ipin_7\.sky130_fd_sc_hd__mux2_1_8_X
*306 mux_top_ipin_7\.sky130_fd_sc_hd__mux2_1_9_X
*307 mux_top_ipin_8\.sky130_fd_sc_hd__mux2_1_0_X
*308 mux_top_ipin_8\.sky130_fd_sc_hd__mux2_1_1_X
*309 mux_top_ipin_8\.sky130_fd_sc_hd__mux2_1_2_X
*310 mux_top_ipin_8\.sky130_fd_sc_hd__mux2_1_3_X
*311 mux_top_ipin_8\.sky130_fd_sc_hd__mux2_1_4_X
*312 mux_top_ipin_8\.sky130_fd_sc_hd__mux2_1_5_X
*313 mux_top_ipin_8\.sky130_fd_sc_hd__mux2_1_6_X
*314 mux_top_ipin_8\.sky130_fd_sc_hd__mux2_1_7_X
*315 mux_top_ipin_8\.sky130_fd_sc_hd__mux2_1_8_X
*316 mux_top_ipin_8\.sky130_fd_sc_hd__mux2_1_9_X
*317 net1
*318 net10
*319 net100
*320 net101
*321 net102
*322 net103
*323 net104
*324 net105
*325 net106
*326 net107
*327 net108
*328 net109
*329 net11
*330 net110
*331 net111
*332 net112
*333 net113
*334 net114
*335 net115
*336 net116
*337 net117
*338 net118
*339 net119
*340 net12
*341 net120
*342 net121
*343 net122
*344 net123
*345 net124
*346 net125
*347 net126
*348 net127
*349 net128
*350 net129
*351 net13
*352 net130
*353 net131
*354 net132
*355 net133
*356 net134
*357 net135
*358 net136
*359 net137
*360 net138
*361 net139
*362 net14
*363 net140
*364 net141
*365 net142
*366 net143
*367 net144
*368 net145
*369 net146
*370 net147
*371 net148
*372 net149
*373 net15
*374 net150
*375 net151
*376 net152
*377 net153
*378 net154
*379 net155
*380 net156
*381 net157
*382 net158
*383 net159
*384 net16
*385 net160
*386 net161
*387 net162
*388 net163
*389 net164
*390 net17
*391 net18
*392 net19
*393 net2
*394 net20
*395 net21
*396 net22
*397 net23
*398 net24
*399 net25
*400 net26
*401 net27
*402 net28
*403 net29
*404 net3
*405 net30
*406 net31
*407 net32
*408 net33
*409 net34
*410 net35
*411 net36
*412 net37
*413 net38
*414 net39
*415 net4
*416 net40
*417 net41
*418 net42
*419 net43
*420 net44
*421 net45
*422 net46
*423 net47
*424 net48
*425 net49
*426 net5
*427 net50
*428 net51
*429 net52
*430 net53
*431 net54
*432 net55
*433 net56
*434 net57
*435 net58
*436 net59
*437 net6
*438 net60
*439 net61
*440 net62
*441 net63
*442 net64
*443 net65
*444 net66
*445 net67
*446 net68
*447 net69
*448 net7
*449 net70
*450 net71
*451 net72
*452 net73
*453 net74
*454 net75
*455 net76
*456 net77
*457 net78
*458 net79
*459 net8
*460 net80
*461 net81
*462 net82
*463 net83
*464 net84
*465 net85
*466 net86
*467 net87
*468 net88
*469 net89
*470 net9
*471 net90
*472 net91
*473 net92
*474 net93
*475 net94
*476 net95
*477 net96
*478 net97
*479 net98
*480 net99
*481 ANTENNA__18__A
*482 ANTENNA__19__A
*483 ANTENNA__20__A
*484 ANTENNA__21__A
*485 ANTENNA__22__A
*486 ANTENNA__23__A
*487 ANTENNA__24__A
*488 ANTENNA__25__A
*489 ANTENNA__27__A
*490 ANTENNA__29__A
*491 ANTENNA__31__A
*492 ANTENNA__33__A
*493 ANTENNA__36__A
*494 ANTENNA__38__A
*495 ANTENNA__39__A
*496 ANTENNA__41__A
*497 ANTENNA__43__A
*498 ANTENNA__44__A
*499 ANTENNA__45__A
*500 ANTENNA__46__A
*501 ANTENNA__47__A
*502 ANTENNA__48__A
*503 ANTENNA__49__A
*504 ANTENNA__50__A
*505 ANTENNA__51__A
*506 ANTENNA__53__A
*507 ANTENNA__54__A
*508 ANTENNA__73__A
*509 ANTENNA__77__A
*510 ANTENNA__78__A
*511 ANTENNA__79__A
*512 ANTENNA__80__A
*513 ANTENNA__81__A
*514 ANTENNA__85__A
*515 ANTENNA_input10_A
*516 ANTENNA_input11_A
*517 ANTENNA_input12_A
*518 ANTENNA_input13_A
*519 ANTENNA_input14_A
*520 ANTENNA_input15_A
*521 ANTENNA_input16_A
*522 ANTENNA_input17_A
*523 ANTENNA_input18_A
*524 ANTENNA_input19_A
*525 ANTENNA_input1_A
*526 ANTENNA_input20_A
*527 ANTENNA_input21_A
*528 ANTENNA_input22_A
*529 ANTENNA_input23_A
*530 ANTENNA_input24_A
*531 ANTENNA_input25_A
*532 ANTENNA_input26_A
*533 ANTENNA_input27_A
*534 ANTENNA_input28_A
*535 ANTENNA_input29_A
*536 ANTENNA_input2_A
*537 ANTENNA_input30_A
*538 ANTENNA_input31_A
*539 ANTENNA_input32_A
*540 ANTENNA_input33_A
*541 ANTENNA_input34_A
*542 ANTENNA_input35_A
*543 ANTENNA_input36_A
*544 ANTENNA_input37_A
*545 ANTENNA_input38_A
*546 ANTENNA_input39_A
*547 ANTENNA_input3_A
*548 ANTENNA_input40_A
*549 ANTENNA_input41_A
*550 ANTENNA_input42_A
*551 ANTENNA_input43_A
*552 ANTENNA_input44_A
*553 ANTENNA_input45_A
*554 ANTENNA_input46_A
*555 ANTENNA_input47_A
*556 ANTENNA_input48_A
*557 ANTENNA_input49_A
*558 ANTENNA_input4_A
*559 ANTENNA_input50_A
*560 ANTENNA_input51_A
*561 ANTENNA_input52_A
*562 ANTENNA_input53_A
*563 ANTENNA_input54_A
*564 ANTENNA_input55_A
*565 ANTENNA_input56_A
*566 ANTENNA_input57_A
*567 ANTENNA_input58_A
*568 ANTENNA_input59_A
*569 ANTENNA_input5_A
*570 ANTENNA_input60_A
*571 ANTENNA_input61_A
*572 ANTENNA_input62_A
*573 ANTENNA_input6_A
*574 ANTENNA_input7_A
*575 ANTENNA_input8_A
*576 ANTENNA_input9_A
*577 ANTENNA_mux_top_ipin_0\.mux_l1_in_2__A0
*578 ANTENNA_mux_top_ipin_0\.mux_l1_in_2__A1
*579 ANTENNA_mux_top_ipin_0\.mux_l2_in_1__A0
*580 ANTENNA_mux_top_ipin_0\.mux_l2_in_2__A0
*581 ANTENNA_mux_top_ipin_0\.mux_l2_in_2__A1
*582 ANTENNA_mux_top_ipin_0\.mux_l2_in_3__A1
*583 ANTENNA_mux_top_ipin_1\.mux_l1_in_0__A0
*584 ANTENNA_mux_top_ipin_1\.mux_l1_in_0__A1
*585 ANTENNA_mux_top_ipin_1\.mux_l1_in_1__A0
*586 ANTENNA_mux_top_ipin_1\.mux_l1_in_1__A1
*587 ANTENNA_mux_top_ipin_1\.mux_l1_in_2__A0
*588 ANTENNA_mux_top_ipin_1\.mux_l2_in_1__A0
*589 ANTENNA_mux_top_ipin_2\.mux_l1_in_2__A0
*590 ANTENNA_mux_top_ipin_2\.mux_l1_in_2__A1
*591 ANTENNA_mux_top_ipin_2\.mux_l2_in_1__A0
*592 ANTENNA_mux_top_ipin_2\.mux_l2_in_2__A0
*593 ANTENNA_mux_top_ipin_2\.mux_l2_in_2__A1
*594 ANTENNA_mux_top_ipin_2\.mux_l2_in_3__A1
*595 ANTENNA_mux_top_ipin_3\.mux_l1_in_0__A0
*596 ANTENNA_mux_top_ipin_3\.mux_l1_in_0__A1
*597 ANTENNA_mux_top_ipin_3\.mux_l1_in_1__A0
*598 ANTENNA_mux_top_ipin_3\.mux_l1_in_1__A1
*599 ANTENNA_mux_top_ipin_3\.mux_l1_in_2__A0
*600 ANTENNA_mux_top_ipin_3\.mux_l2_in_1__A0
*601 ANTENNA_mux_top_ipin_3\.mux_l2_in_2__A0
*602 ANTENNA_mux_top_ipin_4\.mux_l1_in_2__A0
*603 ANTENNA_mux_top_ipin_4\.mux_l1_in_2__A1
*604 ANTENNA_mux_top_ipin_4\.mux_l2_in_1__A0
*605 ANTENNA_mux_top_ipin_4\.mux_l2_in_2__A0
*606 ANTENNA_mux_top_ipin_4\.mux_l2_in_2__A1
*607 ANTENNA_mux_top_ipin_4\.mux_l2_in_3__A1
*608 ANTENNA_mux_top_ipin_5\.mux_l1_in_0__A0
*609 ANTENNA_mux_top_ipin_5\.mux_l1_in_0__A1
*610 ANTENNA_mux_top_ipin_5\.mux_l1_in_1__A0
*611 ANTENNA_mux_top_ipin_5\.mux_l1_in_1__A1
*612 ANTENNA_mux_top_ipin_5\.mux_l1_in_2__A0
*613 ANTENNA_mux_top_ipin_5\.mux_l2_in_1__A0
*614 ANTENNA_mux_top_ipin_5\.mux_l2_in_2__A0
*615 ANTENNA_mux_top_ipin_5\.mux_l2_in_2__A1
*616 ANTENNA_mux_top_ipin_6\.mux_l1_in_2__A0
*617 ANTENNA_mux_top_ipin_6\.mux_l1_in_2__A1
*618 ANTENNA_mux_top_ipin_6\.mux_l2_in_1__A0
*619 ANTENNA_mux_top_ipin_6\.mux_l2_in_2__A0
*620 ANTENNA_mux_top_ipin_6\.mux_l2_in_2__A1
*621 ANTENNA_mux_top_ipin_6\.mux_l2_in_3__A1
*622 ANTENNA_mux_top_ipin_7\.mux_l1_in_0__A0
*623 ANTENNA_mux_top_ipin_7\.mux_l1_in_0__A1
*624 ANTENNA_mux_top_ipin_7\.mux_l1_in_1__A0
*625 ANTENNA_mux_top_ipin_7\.mux_l1_in_1__A1
*626 ANTENNA_mux_top_ipin_7\.mux_l1_in_2__A0
*627 ANTENNA_mux_top_ipin_7\.mux_l2_in_1__A0
*628 ANTENNA_mux_top_ipin_8\.mux_l1_in_2__A0
*629 ANTENNA_mux_top_ipin_8\.mux_l1_in_2__A1
*630 ANTENNA_mux_top_ipin_8\.mux_l2_in_1__A0
*631 ANTENNA_mux_top_ipin_8\.mux_l2_in_2__A0
*632 ANTENNA_mux_top_ipin_8\.mux_l2_in_2__A1
*633 ANTENNA_mux_top_ipin_8\.mux_l2_in_3__A1
*634 ANTENNA_prog_clk_0_FTB00_A
*635 ANTENNA_prog_clk_0_W_FTB01_A
*636 FILLER_0_103
*637 FILLER_0_111
*638 FILLER_0_13
*639 FILLER_0_141
*640 FILLER_0_167
*641 FILLER_0_18
*642 FILLER_0_189
*643 FILLER_0_23
*644 FILLER_0_33
*645 FILLER_0_38
*646 FILLER_0_43
*647 FILLER_0_63
*648 FILLER_0_68
*649 FILLER_0_73
*650 FILLER_0_78
*651 FILLER_0_83
*652 FILLER_0_93
*653 FILLER_0_98
*654 FILLER_10_101
*655 FILLER_10_118
*656 FILLER_10_135
*657 FILLER_10_139
*658 FILLER_10_141
*659 FILLER_10_158
*660 FILLER_10_170
*661 FILLER_10_176
*662 FILLER_10_181
*663 FILLER_10_185
*664 FILLER_10_24
*665 FILLER_10_29
*666 FILLER_10_53
*667 FILLER_10_79
*668 FILLER_10_83
*669 FILLER_11_110
*670 FILLER_11_145
*671 FILLER_11_153
*672 FILLER_11_164
*673 FILLER_11_169
*674 FILLER_11_3
*675 FILLER_11_33
*676 FILLER_11_55
*677 FILLER_11_73
*678 FILLER_11_85
*679 FILLER_12_114
*680 FILLER_12_134
*681 FILLER_12_14
*682 FILLER_12_141
*683 FILLER_12_155
*684 FILLER_12_165
*685 FILLER_12_171
*686 FILLER_12_183
*687 FILLER_12_29
*688 FILLER_12_63
*689 FILLER_12_67
*690 FILLER_12_85
*691 FILLER_12_97
*692 FILLER_13_109
*693 FILLER_13_113
*694 FILLER_13_133
*695 FILLER_13_145
*696 FILLER_13_157
*697 FILLER_13_165
*698 FILLER_13_169
*699 FILLER_13_185
*700 FILLER_13_28
*701 FILLER_13_52
*702 FILLER_13_57
*703 FILLER_13_65
*704 FILLER_13_97
*705 FILLER_14_102
*706 FILLER_14_110
*707 FILLER_14_128
*708 FILLER_14_141
*709 FILLER_14_153
*710 FILLER_14_165
*711 FILLER_14_185
*712 FILLER_14_19
*713 FILLER_14_33
*714 FILLER_14_53
*715 FILLER_14_75
*716 FILLER_14_83
*717 FILLER_14_85
*718 FILLER_15_111
*719 FILLER_15_13
*720 FILLER_15_156
*721 FILLER_15_164
*722 FILLER_15_36
*723 FILLER_15_57
*724 FILLER_15_61
*725 FILLER_15_94
*726 FILLER_16_108
*727 FILLER_16_114
*728 FILLER_16_131
*729 FILLER_16_139
*730 FILLER_16_159
*731 FILLER_16_27
*732 FILLER_16_31
*733 FILLER_16_53
*734 FILLER_16_65
*735 FILLER_16_69
*736 FILLER_16_83
*737 FILLER_16_96
*738 FILLER_17_103
*739 FILLER_17_111
*740 FILLER_17_113
*741 FILLER_17_121
*742 FILLER_17_133
*743 FILLER_17_145
*744 FILLER_17_169
*745 FILLER_17_179
*746 FILLER_17_19
*747 FILLER_17_40
*748 FILLER_17_46
*749 FILLER_17_59
*750 FILLER_17_69
*751 FILLER_18_104
*752 FILLER_18_115
*753 FILLER_18_136
*754 FILLER_18_155
*755 FILLER_18_163
*756 FILLER_18_170
*757 FILLER_18_47
*758 FILLER_18_53
*759 FILLER_18_83
*760 FILLER_18_85
*761 FILLER_19_103
*762 FILLER_19_111
*763 FILLER_19_113
*764 FILLER_19_123
*765 FILLER_19_127
*766 FILLER_19_150
*767 FILLER_19_162
*768 FILLER_19_169
*769 FILLER_19_53
*770 FILLER_19_57
*771 FILLER_19_63
*772 FILLER_19_75
*773 FILLER_1_158
*774 FILLER_1_169
*775 FILLER_1_34
*776 FILLER_1_45
*777 FILLER_1_49
*778 FILLER_1_55
*779 FILLER_1_57
*780 FILLER_20_100
*781 FILLER_20_106
*782 FILLER_20_128
*783 FILLER_20_136
*784 FILLER_20_139
*785 FILLER_20_141
*786 FILLER_20_153
*787 FILLER_20_161
*788 FILLER_20_27
*789 FILLER_20_43
*790 FILLER_20_71
*791 FILLER_20_83
*792 FILLER_20_85
*793 FILLER_21_100
*794 FILLER_21_111
*795 FILLER_21_115
*796 FILLER_21_123
*797 FILLER_21_127
*798 FILLER_21_131
*799 FILLER_21_135
*800 FILLER_21_141
*801 FILLER_21_149
*802 FILLER_21_153
*803 FILLER_21_159
*804 FILLER_21_169
*805 FILLER_21_33
*806 FILLER_21_40
*807 FILLER_21_66
*808 FILLER_21_72
*809 FILLER_21_83
*810 FILLER_22_100
*811 FILLER_22_107
*812 FILLER_22_111
*813 FILLER_22_128
*814 FILLER_22_135
*815 FILLER_22_139
*816 FILLER_22_146
*817 FILLER_22_150
*818 FILLER_22_169
*819 FILLER_22_23
*820 FILLER_22_55
*821 FILLER_22_66
*822 FILLER_22_72
*823 FILLER_22_80
*824 FILLER_22_93
*825 FILLER_2_104
*826 FILLER_2_117
*827 FILLER_2_121
*828 FILLER_2_139
*829 FILLER_2_173
*830 FILLER_2_33
*831 FILLER_2_45
*832 FILLER_2_49
*833 FILLER_2_57
*834 FILLER_2_65
*835 FILLER_2_69
*836 FILLER_2_73
*837 FILLER_2_83
*838 FILLER_2_88
*839 FILLER_3_106
*840 FILLER_3_113
*841 FILLER_3_121
*842 FILLER_3_178
*843 FILLER_3_31
*844 FILLER_3_43
*845 FILLER_3_55
*846 FILLER_3_59
*847 FILLER_3_71
*848 FILLER_3_79
*849 FILLER_3_95
*850 FILLER_4_114
*851 FILLER_4_128
*852 FILLER_4_136
*853 FILLER_4_141
*854 FILLER_4_147
*855 FILLER_4_165
*856 FILLER_4_35
*857 FILLER_4_65
*858 FILLER_4_70
*859 FILLER_4_85
*860 FILLER_4_97
*861 FILLER_5_104
*862 FILLER_5_124
*863 FILLER_5_178
*864 FILLER_5_44
*865 FILLER_5_55
*866 FILLER_5_83
*867 FILLER_5_92
*868 FILLER_6_141
*869 FILLER_6_185
*870 FILLER_6_29
*871 FILLER_6_3
*872 FILLER_6_32
*873 FILLER_6_36
*874 FILLER_6_53
*875 FILLER_6_64
*876 FILLER_6_71
*877 FILLER_6_75
*878 FILLER_6_79
*879 FILLER_6_83
*880 FILLER_6_94
*881 FILLER_6_98
*882 FILLER_7_100
*883 FILLER_7_113
*884 FILLER_7_133
*885 FILLER_7_162
*886 FILLER_7_185
*887 FILLER_7_57
*888 FILLER_7_75
*889 FILLER_8_105
*890 FILLER_8_139
*891 FILLER_8_141
*892 FILLER_8_156
*893 FILLER_8_27
*894 FILLER_8_54
*895 FILLER_8_62
*896 FILLER_8_81
*897 FILLER_8_85
*898 FILLER_9_113
*899 FILLER_9_135
*900 FILLER_9_159
*901 FILLER_9_165
*902 FILLER_9_178
*903 FILLER_9_185
*904 FILLER_9_53
*905 FILLER_9_57
*906 FILLER_9_77
*907 PHY_0
*908 PHY_1
*909 PHY_10
*910 PHY_11
*911 PHY_12
*912 PHY_13
*913 PHY_14
*914 PHY_15
*915 PHY_16
*916 PHY_17
*917 PHY_18
*918 PHY_19
*919 PHY_2
*920 PHY_20
*921 PHY_21
*922 PHY_22
*923 PHY_23
*924 PHY_24
*925 PHY_25
*926 PHY_26
*927 PHY_27
*928 PHY_28
*929 PHY_29
*930 PHY_3
*931 PHY_30
*932 PHY_31
*933 PHY_32
*934 PHY_33
*935 PHY_34
*936 PHY_35
*937 PHY_36
*938 PHY_37
*939 PHY_38
*940 PHY_39
*941 PHY_4
*942 PHY_40
*943 PHY_41
*944 PHY_42
*945 PHY_43
*946 PHY_44
*947 PHY_45
*948 PHY_5
*949 PHY_6
*950 PHY_7
*951 PHY_8
*952 PHY_9
*953 TAP_100
*954 TAP_101
*955 TAP_102
*956 TAP_103
*957 TAP_104
*958 TAP_105
*959 TAP_106
*960 TAP_107
*961 TAP_108
*962 TAP_109
*963 TAP_110
*964 TAP_111
*965 TAP_112
*966 TAP_113
*967 TAP_114
*968 TAP_115
*969 TAP_116
*970 TAP_117
*971 TAP_118
*972 TAP_119
*973 TAP_120
*974 TAP_46
*975 TAP_47
*976 TAP_48
*977 TAP_49
*978 TAP_50
*979 TAP_51
*980 TAP_52
*981 TAP_53
*982 TAP_54
*983 TAP_55
*984 TAP_56
*985 TAP_57
*986 TAP_58
*987 TAP_59
*988 TAP_60
*989 TAP_61
*990 TAP_62
*991 TAP_63
*992 TAP_64
*993 TAP_65
*994 TAP_66
*995 TAP_67
*996 TAP_68
*997 TAP_69
*998 TAP_70
*999 TAP_71
*1000 TAP_72
*1001 TAP_73
*1002 TAP_74
*1003 TAP_75
*1004 TAP_76
*1005 TAP_77
*1006 TAP_78
*1007 TAP_79
*1008 TAP_80
*1009 TAP_81
*1010 TAP_82
*1011 TAP_83
*1012 TAP_84
*1013 TAP_85
*1014 TAP_86
*1015 TAP_87
*1016 TAP_88
*1017 TAP_89
*1018 TAP_90
*1019 TAP_91
*1020 TAP_92
*1021 TAP_93
*1022 TAP_94
*1023 TAP_95
*1024 TAP_96
*1025 TAP_97
*1026 TAP_98
*1027 TAP_99
*1028 _18_
*1029 _19_
*1030 _20_
*1031 _21_
*1032 _22_
*1033 _23_
*1034 _24_
*1035 _25_
*1036 _26_
*1037 _27_
*1038 _28_
*1039 _29_
*1040 _30_
*1041 _31_
*1042 _32_
*1043 _33_
*1044 _34_
*1045 _35_
*1046 _36_
*1047 _37_
*1048 _38_
*1049 _39_
*1050 _40_
*1051 _41_
*1052 _42_
*1053 _43_
*1054 _44_
*1055 _45_
*1056 _46_
*1057 _47_
*1058 _48_
*1059 _49_
*1060 _50_
*1061 _51_
*1062 _52_
*1063 _53_
*1064 _54_
*1065 _55_
*1066 _56_
*1067 _57_
*1068 _58_
*1069 _59_
*1070 _60_
*1071 _61_
*1072 _62_
*1073 _63_
*1074 _64_
*1075 _65_
*1076 _66_
*1077 _67_
*1078 _68_
*1079 _69_
*1080 _70_
*1081 _71_
*1082 _72_
*1083 _73_
*1084 _74_
*1085 _75_
*1086 _76_
*1087 _77_
*1088 _78_
*1089 _79_
*1090 _80_
*1091 _81_
*1092 _82_
*1093 _83_
*1094 _84_
*1095 _85_
*1096 _86_
*1097 hold1
*1098 hold2
*1099 hold3
*1100 hold4
*1101 hold5
*1102 hold6
*1103 hold7
*1104 input1
*1105 input10
*1106 input11
*1107 input12
*1108 input13
*1109 input14
*1110 input15
*1111 input16
*1112 input17
*1113 input18
*1114 input19
*1115 input2
*1116 input20
*1117 input21
*1118 input22
*1119 input23
*1120 input24
*1121 input25
*1122 input26
*1123 input27
*1124 input28
*1125 input29
*1126 input3
*1127 input30
*1128 input31
*1129 input32
*1130 input33
*1131 input34
*1132 input35
*1133 input36
*1134 input37
*1135 input38
*1136 input39
*1137 input4
*1138 input40
*1139 input41
*1140 input42
*1141 input43
*1142 input44
*1143 input45
*1144 input46
*1145 input47
*1146 input48
*1147 input49
*1148 input5
*1149 input50
*1150 input51
*1151 input52
*1152 input53
*1153 input54
*1154 input55
*1155 input56
*1156 input57
*1157 input58
*1158 input59
*1159 input6
*1160 input60
*1161 input61
*1162 input62
*1163 input7
*1164 input8
*1165 input9
*1166 logical_tile_io_mode_io__0\.ltile_phy_iopad_0\.EMBEDDED_IO_HD_0_\.INV_SOC_DIR
*1167 logical_tile_io_mode_io__0\.ltile_phy_iopad_0\.EMBEDDED_IO_HD_0_\.IN_PROTECT_GATE
*1168 logical_tile_io_mode_io__0\.ltile_phy_iopad_0\.EMBEDDED_IO_HD_0_\.ISOL_EN_GATE
*1169 logical_tile_io_mode_io__0\.ltile_phy_iopad_0\.EMBEDDED_IO_HD_0_\.OUT_PROTECT_GATE
*1170 logical_tile_io_mode_io__0\.ltile_phy_iopad_0\.EMBEDDED_IO_HD_sky130_fd_sc_hd__dfxtp_1_mem\.sky130_fd_sc_hd__dfxtp_1_0_
*1171 logical_tile_io_mode_io__1\.ltile_phy_iopad_0\.EMBEDDED_IO_HD_0_\.INV_SOC_DIR
*1172 logical_tile_io_mode_io__1\.ltile_phy_iopad_0\.EMBEDDED_IO_HD_0_\.IN_PROTECT_GATE
*1173 logical_tile_io_mode_io__1\.ltile_phy_iopad_0\.EMBEDDED_IO_HD_0_\.ISOL_EN_GATE
*1174 logical_tile_io_mode_io__1\.ltile_phy_iopad_0\.EMBEDDED_IO_HD_0_\.OUT_PROTECT_GATE
*1175 logical_tile_io_mode_io__1\.ltile_phy_iopad_0\.EMBEDDED_IO_HD_sky130_fd_sc_hd__dfxtp_1_mem\.sky130_fd_sc_hd__dfxtp_1_0_
*1176 logical_tile_io_mode_io__2\.ltile_phy_iopad_0\.EMBEDDED_IO_HD_0_\.INV_SOC_DIR
*1177 logical_tile_io_mode_io__2\.ltile_phy_iopad_0\.EMBEDDED_IO_HD_0_\.IN_PROTECT_GATE
*1178 logical_tile_io_mode_io__2\.ltile_phy_iopad_0\.EMBEDDED_IO_HD_0_\.ISOL_EN_GATE
*1179 logical_tile_io_mode_io__2\.ltile_phy_iopad_0\.EMBEDDED_IO_HD_0_\.OUT_PROTECT_GATE
*1180 logical_tile_io_mode_io__2\.ltile_phy_iopad_0\.EMBEDDED_IO_HD_sky130_fd_sc_hd__dfxtp_1_mem\.sky130_fd_sc_hd__dfxtp_1_0_
*1181 logical_tile_io_mode_io__3\.ltile_phy_iopad_0\.EMBEDDED_IO_HD_0_\.INV_SOC_DIR
*1182 logical_tile_io_mode_io__3\.ltile_phy_iopad_0\.EMBEDDED_IO_HD_0_\.IN_PROTECT_GATE
*1183 logical_tile_io_mode_io__3\.ltile_phy_iopad_0\.EMBEDDED_IO_HD_0_\.ISOL_EN_GATE
*1184 logical_tile_io_mode_io__3\.ltile_phy_iopad_0\.EMBEDDED_IO_HD_0_\.OUT_PROTECT_GATE
*1185 logical_tile_io_mode_io__3\.ltile_phy_iopad_0\.EMBEDDED_IO_HD_sky130_fd_sc_hd__dfxtp_1_mem\.sky130_fd_sc_hd__dfxtp_1_0_
*1186 logical_tile_io_mode_io__4\.ltile_phy_iopad_0\.EMBEDDED_IO_HD_0_\.INV_SOC_DIR
*1187 logical_tile_io_mode_io__4\.ltile_phy_iopad_0\.EMBEDDED_IO_HD_0_\.IN_PROTECT_GATE
*1188 logical_tile_io_mode_io__4\.ltile_phy_iopad_0\.EMBEDDED_IO_HD_0_\.ISOL_EN_GATE
*1189 logical_tile_io_mode_io__4\.ltile_phy_iopad_0\.EMBEDDED_IO_HD_0_\.OUT_PROTECT_GATE
*1190 logical_tile_io_mode_io__4\.ltile_phy_iopad_0\.EMBEDDED_IO_HD_sky130_fd_sc_hd__dfxtp_1_mem\.sky130_fd_sc_hd__dfxtp_1_0_
*1191 logical_tile_io_mode_io__5\.ltile_phy_iopad_0\.EMBEDDED_IO_HD_0_\.INV_SOC_DIR
*1192 logical_tile_io_mode_io__5\.ltile_phy_iopad_0\.EMBEDDED_IO_HD_0_\.IN_PROTECT_GATE
*1193 logical_tile_io_mode_io__5\.ltile_phy_iopad_0\.EMBEDDED_IO_HD_0_\.ISOL_EN_GATE
*1194 logical_tile_io_mode_io__5\.ltile_phy_iopad_0\.EMBEDDED_IO_HD_0_\.OUT_PROTECT_GATE