*SPEF "ieee 1481-1999"
*DESIGN "cbx_1__1_"
*DATE "11:11:11 Fri 11 11, 1111"
*VENDOR "OpenRCX"
*PROGRAM "Parallel Extraction"
*VERSION "1.0"
*DESIGN_FLOW "NAME_SCOPE LOCAL" "PIN_CAP NONE"
*DIVIDER /
*DELIMITER :
*BUS_DELIMITER []
*T_UNIT 1 NS
*C_UNIT 1 PF
*R_UNIT 1 OHM
*L_UNIT 1 HENRY

*NAME_MAP
*1 REGIN_FEEDTHROUGH
*2 REGOUT_FEEDTHROUGH
*3 SC_IN_BOT
*4 SC_IN_TOP
*5 SC_OUT_BOT
*6 SC_OUT_TOP
*9 bottom_grid_pin_0_
*10 bottom_grid_pin_10_
*11 bottom_grid_pin_11_
*12 bottom_grid_pin_12_
*13 bottom_grid_pin_13_
*14 bottom_grid_pin_14_
*15 bottom_grid_pin_15_
*16 bottom_grid_pin_1_
*17 bottom_grid_pin_2_
*18 bottom_grid_pin_3_
*19 bottom_grid_pin_4_
*20 bottom_grid_pin_5_
*21 bottom_grid_pin_6_
*22 bottom_grid_pin_7_
*23 bottom_grid_pin_8_
*24 bottom_grid_pin_9_
*25 ccff_head
*26 ccff_tail
*27 chanx_left_in[0]
*28 chanx_left_in[10]
*29 chanx_left_in[11]
*30 chanx_left_in[12]
*31 chanx_left_in[13]
*32 chanx_left_in[14]
*33 chanx_left_in[15]
*34 chanx_left_in[16]
*35 chanx_left_in[17]
*36 chanx_left_in[18]
*37 chanx_left_in[19]
*38 chanx_left_in[1]
*39 chanx_left_in[2]
*40 chanx_left_in[3]
*41 chanx_left_in[4]
*42 chanx_left_in[5]
*43 chanx_left_in[6]
*44 chanx_left_in[7]
*45 chanx_left_in[8]
*46 chanx_left_in[9]
*47 chanx_left_out[0]
*48 chanx_left_out[10]
*49 chanx_left_out[11]
*50 chanx_left_out[12]
*51 chanx_left_out[13]
*52 chanx_left_out[14]
*53 chanx_left_out[15]
*54 chanx_left_out[16]
*55 chanx_left_out[17]
*56 chanx_left_out[18]
*57 chanx_left_out[19]
*58 chanx_left_out[1]
*59 chanx_left_out[2]
*60 chanx_left_out[3]
*61 chanx_left_out[4]
*62 chanx_left_out[5]
*63 chanx_left_out[6]
*64 chanx_left_out[7]
*65 chanx_left_out[8]
*66 chanx_left_out[9]
*67 chanx_right_in[0]
*68 chanx_right_in[10]
*69 chanx_right_in[11]
*70 chanx_right_in[12]
*71 chanx_right_in[13]
*72 chanx_right_in[14]
*73 chanx_right_in[15]
*74 chanx_right_in[16]
*75 chanx_right_in[17]
*76 chanx_right_in[18]
*77 chanx_right_in[19]
*78 chanx_right_in[1]
*79 chanx_right_in[2]
*80 chanx_right_in[3]
*81 chanx_right_in[4]
*82 chanx_right_in[5]
*83 chanx_right_in[6]
*84 chanx_right_in[7]
*85 chanx_right_in[8]
*86 chanx_right_in[9]
*87 chanx_right_out[0]
*88 chanx_right_out[10]
*89 chanx_right_out[11]
*90 chanx_right_out[12]
*91 chanx_right_out[13]
*92 chanx_right_out[14]
*93 chanx_right_out[15]
*94 chanx_right_out[16]
*95 chanx_right_out[17]
*96 chanx_right_out[18]
*97 chanx_right_out[19]
*98 chanx_right_out[1]
*99 chanx_right_out[2]
*100 chanx_right_out[3]
*101 chanx_right_out[4]
*102 chanx_right_out[5]
*103 chanx_right_out[6]
*104 chanx_right_out[7]
*105 chanx_right_out[8]
*106 chanx_right_out[9]
*107 clk_1_N_out
*108 clk_1_S_out
*109 clk_1_W_in
*110 clk_2_E_out
*111 clk_2_W_in
*112 clk_2_W_out
*113 clk_3_E_out
*114 clk_3_W_in
*115 clk_3_W_out
*116 prog_clk_0_N_in
*117 prog_clk_0_W_out
*118 prog_clk_1_N_out
*119 prog_clk_1_S_out
*120 prog_clk_1_W_in
*121 prog_clk_2_E_out
*122 prog_clk_2_W_in
*123 prog_clk_2_W_out
*124 prog_clk_3_E_out
*125 prog_clk_3_W_in
*126 prog_clk_3_W_out
*127 _00_
*128 _01_
*129 _02_
*130 _03_
*131 _04_
*132 _05_
*133 _06_
*134 _07_
*135 _08_
*136 _09_
*137 _10_
*138 _11_
*139 _12_
*140 _13_
*141 _14_
*142 _15_
*143 mem_top_ipin_0\.ccff_tail
*144 mem_top_ipin_0\.mem_out\[0\]
*145 mem_top_ipin_0\.mem_out\[1\]
*146 mem_top_ipin_0\.mem_out\[2\]
*147 mem_top_ipin_0\.prog_clk
*148 mem_top_ipin_1\.ccff_tail
*149 mem_top_ipin_1\.mem_out\[0\]
*150 mem_top_ipin_1\.mem_out\[1\]
*151 mem_top_ipin_1\.mem_out\[2\]
*152 mem_top_ipin_10\.ccff_head
*153 mem_top_ipin_10\.ccff_tail
*154 mem_top_ipin_10\.mem_out\[0\]
*155 mem_top_ipin_10\.mem_out\[1\]
*156 mem_top_ipin_10\.mem_out\[2\]
*157 mem_top_ipin_11\.ccff_tail
*158 mem_top_ipin_11\.mem_out\[0\]
*159 mem_top_ipin_11\.mem_out\[1\]
*160 mem_top_ipin_11\.mem_out\[2\]
*161 mem_top_ipin_12\.ccff_tail
*162 mem_top_ipin_12\.mem_out\[0\]
*163 mem_top_ipin_12\.mem_out\[1\]
*164 mem_top_ipin_12\.mem_out\[2\]
*165 mem_top_ipin_13\.ccff_tail
*166 mem_top_ipin_13\.mem_out\[0\]
*167 mem_top_ipin_13\.mem_out\[1\]
*168 mem_top_ipin_13\.mem_out\[2\]
*169 mem_top_ipin_14\.ccff_tail
*170 mem_top_ipin_14\.mem_out\[0\]
*171 mem_top_ipin_14\.mem_out\[1\]
*172 mem_top_ipin_14\.mem_out\[2\]
*173 mem_top_ipin_15\.mem_out\[0\]
*174 mem_top_ipin_15\.mem_out\[1\]
*175 mem_top_ipin_15\.mem_out\[2\]
*176 mem_top_ipin_2\.ccff_tail
*177 mem_top_ipin_2\.mem_out\[0\]
*178 mem_top_ipin_2\.mem_out\[1\]
*179 mem_top_ipin_2\.mem_out\[2\]
*180 mem_top_ipin_3\.ccff_tail
*181 mem_top_ipin_3\.mem_out\[0\]
*182 mem_top_ipin_3\.mem_out\[1\]
*183 mem_top_ipin_3\.mem_out\[2\]
*184 mem_top_ipin_4\.ccff_tail
*185 mem_top_ipin_4\.mem_out\[0\]
*186 mem_top_ipin_4\.mem_out\[1\]
*187 mem_top_ipin_4\.mem_out\[2\]
*188 mem_top_ipin_5\.ccff_tail
*189 mem_top_ipin_5\.mem_out\[0\]
*190 mem_top_ipin_5\.mem_out\[1\]
*191 mem_top_ipin_5\.mem_out\[2\]
*192 mem_top_ipin_6\.ccff_tail
*193 mem_top_ipin_6\.mem_out\[0\]
*194 mem_top_ipin_6\.mem_out\[1\]
*195 mem_top_ipin_6\.mem_out\[2\]
*196 mem_top_ipin_7\.ccff_tail
*197 mem_top_ipin_7\.mem_out\[0\]
*198 mem_top_ipin_7\.mem_out\[1\]
*199 mem_top_ipin_7\.mem_out\[2\]
*200 mem_top_ipin_8\.ccff_tail
*201 mem_top_ipin_8\.mem_out\[0\]
*202 mem_top_ipin_8\.mem_out\[1\]
*203 mem_top_ipin_8\.mem_out\[2\]
*204 mem_top_ipin_9\.mem_out\[0\]
*205 mem_top_ipin_9\.mem_out\[1\]
*206 mem_top_ipin_9\.mem_out\[2\]
*207 mux_top_ipin_0\.sky130_fd_sc_hd__mux2_1_0_X
*208 mux_top_ipin_0\.sky130_fd_sc_hd__mux2_1_1_X
*209 mux_top_ipin_0\.sky130_fd_sc_hd__mux2_1_2_X
*210 mux_top_ipin_0\.sky130_fd_sc_hd__mux2_1_3_X
*211 mux_top_ipin_0\.sky130_fd_sc_hd__mux2_1_4_X
*212 mux_top_ipin_0\.sky130_fd_sc_hd__mux2_1_5_X
*213 mux_top_ipin_0\.sky130_fd_sc_hd__mux2_1_6_X
*214 mux_top_ipin_0\.sky130_fd_sc_hd__mux2_1_7_X
*215 mux_top_ipin_0\.sky130_fd_sc_hd__mux2_1_8_X
*216 mux_top_ipin_0\.sky130_fd_sc_hd__mux2_1_9_X
*217 mux_top_ipin_1\.sky130_fd_sc_hd__mux2_1_0_X
*218 mux_top_ipin_1\.sky130_fd_sc_hd__mux2_1_1_X
*219 mux_top_ipin_1\.sky130_fd_sc_hd__mux2_1_2_X
*220 mux_top_ipin_1\.sky130_fd_sc_hd__mux2_1_3_X
*221 mux_top_ipin_1\.sky130_fd_sc_hd__mux2_1_4_X
*222 mux_top_ipin_1\.sky130_fd_sc_hd__mux2_1_5_X
*223 mux_top_ipin_1\.sky130_fd_sc_hd__mux2_1_6_X
*224 mux_top_ipin_1\.sky130_fd_sc_hd__mux2_1_7_X
*225 mux_top_ipin_10\.sky130_fd_sc_hd__mux2_1_0_X
*226 mux_top_ipin_10\.sky130_fd_sc_hd__mux2_1_1_X
*227 mux_top_ipin_10\.sky130_fd_sc_hd__mux2_1_2_X
*228 mux_top_ipin_10\.sky130_fd_sc_hd__mux2_1_3_X
*229 mux_top_ipin_10\.sky130_fd_sc_hd__mux2_1_4_X
*230 mux_top_ipin_10\.sky130_fd_sc_hd__mux2_1_5_X
*231 mux_top_ipin_10\.sky130_fd_sc_hd__mux2_1_6_X
*232 mux_top_ipin_10\.sky130_fd_sc_hd__mux2_1_7_X
*233 mux_top_ipin_11\.sky130_fd_sc_hd__mux2_1_0_X
*234 mux_top_ipin_11\.sky130_fd_sc_hd__mux2_1_1_X
*235 mux_top_ipin_11\.sky130_fd_sc_hd__mux2_1_2_X
*236 mux_top_ipin_11\.sky130_fd_sc_hd__mux2_1_3_X
*237 mux_top_ipin_11\.sky130_fd_sc_hd__mux2_1_4_X
*238 mux_top_ipin_11\.sky130_fd_sc_hd__mux2_1_5_X
*239 mux_top_ipin_11\.sky130_fd_sc_hd__mux2_1_6_X
*240 mux_top_ipin_11\.sky130_fd_sc_hd__mux2_1_7_X
*241 mux_top_ipin_11\.sky130_fd_sc_hd__mux2_1_8_X
*242 mux_top_ipin_11\.sky130_fd_sc_hd__mux2_1_9_X
*243 mux_top_ipin_12\.sky130_fd_sc_hd__mux2_1_0_X
*244 mux_top_ipin_12\.sky130_fd_sc_hd__mux2_1_1_X
*245 mux_top_ipin_12\.sky130_fd_sc_hd__mux2_1_2_X
*246 mux_top_ipin_12\.sky130_fd_sc_hd__mux2_1_3_X
*247 mux_top_ipin_12\.sky130_fd_sc_hd__mux2_1_4_X
*248 mux_top_ipin_12\.sky130_fd_sc_hd__mux2_1_5_X
*249 mux_top_ipin_12\.sky130_fd_sc_hd__mux2_1_6_X
*250 mux_top_ipin_12\.sky130_fd_sc_hd__mux2_1_7_X
*251 mux_top_ipin_12\.sky130_fd_sc_hd__mux2_1_8_X
*252 mux_top_ipin_12\.sky130_fd_sc_hd__mux2_1_9_X
*253 mux_top_ipin_13\.sky130_fd_sc_hd__mux2_1_0_X
*254 mux_top_ipin_13\.sky130_fd_sc_hd__mux2_1_1_X
*255 mux_top_ipin_13\.sky130_fd_sc_hd__mux2_1_2_X
*256 mux_top_ipin_13\.sky130_fd_sc_hd__mux2_1_3_X
*257 mux_top_ipin_13\.sky130_fd_sc_hd__mux2_1_4_X
*258 mux_top_ipin_13\.sky130_fd_sc_hd__mux2_1_5_X
*259 mux_top_ipin_13\.sky130_fd_sc_hd__mux2_1_6_X
*260 mux_top_ipin_13\.sky130_fd_sc_hd__mux2_1_7_X
*261 mux_top_ipin_14\.sky130_fd_sc_hd__mux2_1_0_X
*262 mux_top_ipin_14\.sky130_fd_sc_hd__mux2_1_1_X
*263 mux_top_ipin_14\.sky130_fd_sc_hd__mux2_1_2_X
*264 mux_top_ipin_14\.sky130_fd_sc_hd__mux2_1_3_X
*265 mux_top_ipin_14\.sky130_fd_sc_hd__mux2_1_4_X
*266 mux_top_ipin_14\.sky130_fd_sc_hd__mux2_1_5_X
*267 mux_top_ipin_14\.sky130_fd_sc_hd__mux2_1_6_X
*268 mux_top_ipin_14\.sky130_fd_sc_hd__mux2_1_7_X
*269 mux_top_ipin_15\.sky130_fd_sc_hd__mux2_1_0_X
*270 mux_top_ipin_15\.sky130_fd_sc_hd__mux2_1_1_X
*271 mux_top_ipin_15\.sky130_fd_sc_hd__mux2_1_2_X
*272 mux_top_ipin_15\.sky130_fd_sc_hd__mux2_1_3_X
*273 mux_top_ipin_15\.sky130_fd_sc_hd__mux2_1_4_X
*274 mux_top_ipin_15\.sky130_fd_sc_hd__mux2_1_5_X
*275 mux_top_ipin_15\.sky130_fd_sc_hd__mux2_1_6_X
*276 mux_top_ipin_15\.sky130_fd_sc_hd__mux2_1_7_X
*277 mux_top_ipin_15\.sky130_fd_sc_hd__mux2_1_8_X
*278 mux_top_ipin_15\.sky130_fd_sc_hd__mux2_1_9_X
*279 mux_top_ipin_2\.sky130_fd_sc_hd__mux2_1_0_X
*280 mux_top_ipin_2\.sky130_fd_sc_hd__mux2_1_1_X
*281 mux_top_ipin_2\.sky130_fd_sc_hd__mux2_1_2_X
*282 mux_top_ipin_2\.sky130_fd_sc_hd__mux2_1_3_X
*283 mux_top_ipin_2\.sky130_fd_sc_hd__mux2_1_4_X
*284 mux_top_ipin_2\.sky130_fd_sc_hd__mux2_1_5_X
*285 mux_top_ipin_2\.sky130_fd_sc_hd__mux2_1_6_X
*286 mux_top_ipin_2\.sky130_fd_sc_hd__mux2_1_7_X
*287 mux_top_ipin_3\.sky130_fd_sc_hd__mux2_1_0_X
*288 mux_top_ipin_3\.sky130_fd_sc_hd__mux2_1_1_X
*289 mux_top_ipin_3\.sky130_fd_sc_hd__mux2_1_2_X
*290 mux_top_ipin_3\.sky130_fd_sc_hd__mux2_1_3_X
*291 mux_top_ipin_3\.sky130_fd_sc_hd__mux2_1_4_X
*292 mux_top_ipin_3\.sky130_fd_sc_hd__mux2_1_5_X
*293 mux_top_ipin_3\.sky130_fd_sc_hd__mux2_1_6_X
*294 mux_top_ipin_3\.sky130_fd_sc_hd__mux2_1_7_X
*295 mux_top_ipin_3\.sky130_fd_sc_hd__mux2_1_8_X
*296 mux_top_ipin_3\.sky130_fd_sc_hd__mux2_1_9_X
*297 mux_top_ipin_4\.sky130_fd_sc_hd__mux2_1_0_X
*298 mux_top_ipin_4\.sky130_fd_sc_hd__mux2_1_1_X
*299 mux_top_ipin_4\.sky130_fd_sc_hd__mux2_1_2_X
*300 mux_top_ipin_4\.sky130_fd_sc_hd__mux2_1_3_X
*301 mux_top_ipin_4\.sky130_fd_sc_hd__mux2_1_4_X
*302 mux_top_ipin_4\.sky130_fd_sc_hd__mux2_1_5_X
*303 mux_top_ipin_4\.sky130_fd_sc_hd__mux2_1_6_X
*304 mux_top_ipin_4\.sky130_fd_sc_hd__mux2_1_7_X
*305 mux_top_ipin_4\.sky130_fd_sc_hd__mux2_1_8_X
*306 mux_top_ipin_4\.sky130_fd_sc_hd__mux2_1_9_X
*307 mux_top_ipin_5\.sky130_fd_sc_hd__mux2_1_0_X
*308 mux_top_ipin_5\.sky130_fd_sc_hd__mux2_1_1_X
*309 mux_top_ipin_5\.sky130_fd_sc_hd__mux2_1_2_X
*310 mux_top_ipin_5\.sky130_fd_sc_hd__mux2_1_3_X
*311 mux_top_ipin_5\.sky130_fd_sc_hd__mux2_1_4_X
*312 mux_top_ipin_5\.sky130_fd_sc_hd__mux2_1_5_X
*313 mux_top_ipin_5\.sky130_fd_sc_hd__mux2_1_6_X
*314 mux_top_ipin_5\.sky130_fd_sc_hd__mux2_1_7_X
*315 mux_top_ipin_6\.sky130_fd_sc_hd__mux2_1_0_X
*316 mux_top_ipin_6\.sky130_fd_sc_hd__mux2_1_1_X
*317 mux_top_ipin_6\.sky130_fd_sc_hd__mux2_1_2_X
*318 mux_top_ipin_6\.sky130_fd_sc_hd__mux2_1_3_X
*319 mux_top_ipin_6\.sky130_fd_sc_hd__mux2_1_4_X
*320 mux_top_ipin_6\.sky130_fd_sc_hd__mux2_1_5_X
*321 mux_top_ipin_6\.sky130_fd_sc_hd__mux2_1_6_X
*322 mux_top_ipin_6\.sky130_fd_sc_hd__mux2_1_7_X
*323 mux_top_ipin_7\.sky130_fd_sc_hd__mux2_1_0_X
*324 mux_top_ipin_7\.sky130_fd_sc_hd__mux2_1_1_X
*325 mux_top_ipin_7\.sky130_fd_sc_hd__mux2_1_2_X
*326 mux_top_ipin_7\.sky130_fd_sc_hd__mux2_1_3_X
*327 mux_top_ipin_7\.sky130_fd_sc_hd__mux2_1_4_X
*328 mux_top_ipin_7\.sky130_fd_sc_hd__mux2_1_5_X
*329 mux_top_ipin_7\.sky130_fd_sc_hd__mux2_1_6_X
*330 mux_top_ipin_7\.sky130_fd_sc_hd__mux2_1_7_X
*331 mux_top_ipin_7\.sky130_fd_sc_hd__mux2_1_8_X
*332 mux_top_ipin_7\.sky130_fd_sc_hd__mux2_1_9_X
*333 mux_top_ipin_8\.sky130_fd_sc_hd__mux2_1_0_X
*334 mux_top_ipin_8\.sky130_fd_sc_hd__mux2_1_1_X
*335 mux_top_ipin_8\.sky130_fd_sc_hd__mux2_1_2_X
*336 mux_top_ipin_8\.sky130_fd_sc_hd__mux2_1_3_X
*337 mux_top_ipin_8\.sky130_fd_sc_hd__mux2_1_4_X
*338 mux_top_ipin_8\.sky130_fd_sc_hd__mux2_1_5_X
*339 mux_top_ipin_8\.sky130_fd_sc_hd__mux2_1_6_X
*340 mux_top_ipin_8\.sky130_fd_sc_hd__mux2_1_7_X
*341 mux_top_ipin_8\.sky130_fd_sc_hd__mux2_1_8_X
*342 mux_top_ipin_8\.sky130_fd_sc_hd__mux2_1_9_X
*343 mux_top_ipin_9\.sky130_fd_sc_hd__mux2_1_0_X
*344 mux_top_ipin_9\.sky130_fd_sc_hd__mux2_1_1_X
*345 mux_top_ipin_9\.sky130_fd_sc_hd__mux2_1_2_X
*346 mux_top_ipin_9\.sky130_fd_sc_hd__mux2_1_3_X
*347 mux_top_ipin_9\.sky130_fd_sc_hd__mux2_1_4_X
*348 mux_top_ipin_9\.sky130_fd_sc_hd__mux2_1_5_X
*349 mux_top_ipin_9\.sky130_fd_sc_hd__mux2_1_6_X
*350 mux_top_ipin_9\.sky130_fd_sc_hd__mux2_1_7_X
*351 ANTENNA__32__A
*352 ANTENNA__33__A
*353 ANTENNA__34__A
*354 ANTENNA__35__A
*355 ANTENNA__36__A
*356 ANTENNA__37__A
*357 ANTENNA__38__A
*358 ANTENNA__39__A
*359 ANTENNA__40__A
*360 ANTENNA__41__A
*361 ANTENNA__42__A
*362 ANTENNA__43__A
*363 ANTENNA__44__A
*364 ANTENNA__45__A
*365 ANTENNA__46__A
*366 ANTENNA__47__A
*367 ANTENNA__48__A
*368 ANTENNA__49__A
*369 ANTENNA__50__A
*370 ANTENNA__51__A
*371 ANTENNA__52__A
*372 ANTENNA__53__A
*373 ANTENNA__54__A
*374 ANTENNA__55__A
*375 ANTENNA__56__A
*376 ANTENNA__57__A
*377 ANTENNA__58__A
*378 ANTENNA__59__A
*379 ANTENNA__60__A
*380 ANTENNA__61__A
*381 ANTENNA__62__A
*382 ANTENNA__63__A
*383 ANTENNA__64__A
*384 ANTENNA__65__A
*385 ANTENNA__66__A
*386 ANTENNA__67__A
*387 ANTENNA__68__A
*388 ANTENNA__69__A
*389 ANTENNA__70__A
*390 ANTENNA__71__A
*391 ANTENNA__72__A
*392 ANTENNA__73__A
*393 ANTENNA__74__A
*394 ANTENNA_clk_1_N_FTB01_A
*395 ANTENNA_clk_1_S_FTB01_A
*396 ANTENNA_clk_2_E_FTB01_A
*397 ANTENNA_clk_2_W_FTB01_A
*398 ANTENNA_clk_3_E_FTB01_A
*399 ANTENNA_clk_3_W_FTB01_A
*400 ANTENNA_mem_top_ipin_0\.sky130_fd_sc_hd__dfxtp_1_0__D
*401 ANTENNA_mem_top_ipin_2\.sky130_fd_sc_hd__dfxtp_1_0__D
*402 ANTENNA_mem_top_ipin_4\.sky130_fd_sc_hd__dfxtp_1_1__D
*403 ANTENNA_mem_top_ipin_4\.sky130_fd_sc_hd__dfxtp_1_2__D
*404 ANTENNA_mem_top_ipin_5\.sky130_fd_sc_hd__dfxtp_1_2__D
*405 ANTENNA_mux_top_ipin_0\.mux_l1_in_0__A0
*406 ANTENNA_mux_top_ipin_0\.mux_l1_in_0__A1
*407 ANTENNA_mux_top_ipin_0\.mux_l1_in_1__A0
*408 ANTENNA_mux_top_ipin_0\.mux_l1_in_1__A1
*409 ANTENNA_mux_top_ipin_0\.mux_l1_in_2__A0
*410 ANTENNA_mux_top_ipin_0\.mux_l1_in_2__A1
*411 ANTENNA_mux_top_ipin_0\.mux_l2_in_1__A0
*412 ANTENNA_mux_top_ipin_0\.mux_l2_in_2__A0
*413 ANTENNA_mux_top_ipin_0\.mux_l2_in_2__A1
*414 ANTENNA_mux_top_ipin_0\.mux_l2_in_3__A1
*415 ANTENNA_mux_top_ipin_1\.mux_l1_in_0__A0
*416 ANTENNA_mux_top_ipin_1\.mux_l1_in_0__A1
*417 ANTENNA_mux_top_ipin_1\.mux_l2_in_0__A0
*418 ANTENNA_mux_top_ipin_1\.mux_l2_in_1__A0
*419 ANTENNA_mux_top_ipin_1\.mux_l2_in_1__A1
*420 ANTENNA_mux_top_ipin_1\.mux_l2_in_2__A0
*421 ANTENNA_mux_top_ipin_1\.mux_l2_in_2__A1
*422 ANTENNA_mux_top_ipin_1\.mux_l2_in_3__A1
*423 ANTENNA_mux_top_ipin_1\.mux_l4_in_0__S
*424 ANTENNA_mux_top_ipin_10\.mux_l1_in_0__A0
*425 ANTENNA_mux_top_ipin_10\.mux_l1_in_0__A1
*426 ANTENNA_mux_top_ipin_10\.mux_l2_in_0__A0
*427 ANTENNA_mux_top_ipin_10\.mux_l2_in_1__A0
*428 ANTENNA_mux_top_ipin_10\.mux_l2_in_1__A1
*429 ANTENNA_mux_top_ipin_10\.mux_l2_in_2__A0
*430 ANTENNA_mux_top_ipin_10\.mux_l2_in_2__A1
*431 ANTENNA_mux_top_ipin_10\.mux_l2_in_3__A1
*432 ANTENNA_mux_top_ipin_11\.mux_l1_in_0__A0
*433 ANTENNA_mux_top_ipin_11\.mux_l1_in_0__A1
*434 ANTENNA_mux_top_ipin_11\.mux_l1_in_1__A0
*435 ANTENNA_mux_top_ipin_11\.mux_l1_in_1__A1
*436 ANTENNA_mux_top_ipin_11\.mux_l1_in_2__A0
*437 ANTENNA_mux_top_ipin_11\.mux_l1_in_2__A1
*438 ANTENNA_mux_top_ipin_11\.mux_l2_in_1__A0
*439 ANTENNA_mux_top_ipin_11\.mux_l2_in_2__A0
*440 ANTENNA_mux_top_ipin_11\.mux_l2_in_2__A1
*441 ANTENNA_mux_top_ipin_11\.mux_l2_in_3__A1
*442 ANTENNA_mux_top_ipin_12\.mux_l1_in_0__A0
*443 ANTENNA_mux_top_ipin_12\.mux_l1_in_0__A1
*444 ANTENNA_mux_top_ipin_12\.mux_l1_in_1__A0
*445 ANTENNA_mux_top_ipin_12\.mux_l1_in_1__A1
*446 ANTENNA_mux_top_ipin_12\.mux_l1_in_2__A0
*447 ANTENNA_mux_top_ipin_12\.mux_l1_in_2__A1
*448 ANTENNA_mux_top_ipin_12\.mux_l2_in_1__A0
*449 ANTENNA_mux_top_ipin_12\.mux_l2_in_2__A0
*450 ANTENNA_mux_top_ipin_12\.mux_l2_in_2__A1
*451 ANTENNA_mux_top_ipin_12\.mux_l2_in_3__A1
*452 ANTENNA_mux_top_ipin_13\.mux_l1_in_0__A0
*453 ANTENNA_mux_top_ipin_13\.mux_l1_in_0__A1
*454 ANTENNA_mux_top_ipin_13\.mux_l2_in_0__A0
*455 ANTENNA_mux_top_ipin_13\.mux_l2_in_1__A0
*456 ANTENNA_mux_top_ipin_13\.mux_l2_in_1__A1
*457 ANTENNA_mux_top_ipin_13\.mux_l2_in_2__A0
*458 ANTENNA_mux_top_ipin_13\.mux_l2_in_2__A1
*459 ANTENNA_mux_top_ipin_13\.mux_l2_in_3__A1
*460 ANTENNA_mux_top_ipin_14\.mux_l1_in_0__A0
*461 ANTENNA_mux_top_ipin_14\.mux_l1_in_0__A1
*462 ANTENNA_mux_top_ipin_14\.mux_l2_in_0__A0
*463 ANTENNA_mux_top_ipin_14\.mux_l2_in_1__A0
*464 ANTENNA_mux_top_ipin_14\.mux_l2_in_1__A1
*465 ANTENNA_mux_top_ipin_14\.mux_l2_in_2__A0
*466 ANTENNA_mux_top_ipin_14\.mux_l2_in_2__A1
*467 ANTENNA_mux_top_ipin_14\.mux_l2_in_3__A1
*468 ANTENNA_mux_top_ipin_15\.mux_l1_in_0__A0
*469 ANTENNA_mux_top_ipin_15\.mux_l1_in_0__A1
*470 ANTENNA_mux_top_ipin_15\.mux_l1_in_1__A0
*471 ANTENNA_mux_top_ipin_15\.mux_l1_in_1__A1
*472 ANTENNA_mux_top_ipin_15\.mux_l1_in_2__A0
*473 ANTENNA_mux_top_ipin_15\.mux_l1_in_2__A1
*474 ANTENNA_mux_top_ipin_15\.mux_l2_in_1__A0
*475 ANTENNA_mux_top_ipin_15\.mux_l2_in_2__A0
*476 ANTENNA_mux_top_ipin_15\.mux_l2_in_2__A1
*477 ANTENNA_mux_top_ipin_15\.mux_l2_in_3__A1
*478 ANTENNA_mux_top_ipin_15\.mux_l4_in_0__S
*479 ANTENNA_mux_top_ipin_2\.mux_l1_in_0__A0
*480 ANTENNA_mux_top_ipin_2\.mux_l1_in_0__A1
*481 ANTENNA_mux_top_ipin_2\.mux_l2_in_0__A0
*482 ANTENNA_mux_top_ipin_2\.mux_l2_in_1__A0
*483 ANTENNA_mux_top_ipin_2\.mux_l2_in_1__A1
*484 ANTENNA_mux_top_ipin_2\.mux_l2_in_2__A0
*485 ANTENNA_mux_top_ipin_2\.mux_l2_in_2__A1
*486 ANTENNA_mux_top_ipin_2\.mux_l2_in_3__A1
*487 ANTENNA_mux_top_ipin_3\.mux_l1_in_0__A0
*488 ANTENNA_mux_top_ipin_3\.mux_l1_in_0__A1
*489 ANTENNA_mux_top_ipin_3\.mux_l1_in_1__A0
*490 ANTENNA_mux_top_ipin_3\.mux_l1_in_1__A1
*491 ANTENNA_mux_top_ipin_3\.mux_l1_in_2__A0
*492 ANTENNA_mux_top_ipin_3\.mux_l1_in_2__A1
*493 ANTENNA_mux_top_ipin_3\.mux_l2_in_1__A0
*494 ANTENNA_mux_top_ipin_3\.mux_l2_in_2__A0
*495 ANTENNA_mux_top_ipin_3\.mux_l2_in_2__A1
*496 ANTENNA_mux_top_ipin_3\.mux_l2_in_3__A1
*497 ANTENNA_mux_top_ipin_4\.mux_l1_in_0__A0
*498 ANTENNA_mux_top_ipin_4\.mux_l1_in_0__A1
*499 ANTENNA_mux_top_ipin_4\.mux_l1_in_0__S
*500 ANTENNA_mux_top_ipin_4\.mux_l1_in_1__A0
*501 ANTENNA_mux_top_ipin_4\.mux_l1_in_1__A1
*502 ANTENNA_mux_top_ipin_4\.mux_l1_in_1__S
*503 ANTENNA_mux_top_ipin_4\.mux_l1_in_2__A0
*504 ANTENNA_mux_top_ipin_4\.mux_l1_in_2__A1
*505 ANTENNA_mux_top_ipin_4\.mux_l1_in_2__S
*506 ANTENNA_mux_top_ipin_4\.mux_l2_in_0__S
*507 ANTENNA_mux_top_ipin_4\.mux_l2_in_1__A0
*508 ANTENNA_mux_top_ipin_4\.mux_l2_in_1__S
*509 ANTENNA_mux_top_ipin_4\.mux_l2_in_2__A0
*510 ANTENNA_mux_top_ipin_4\.mux_l2_in_2__A1
*511 ANTENNA_mux_top_ipin_4\.mux_l2_in_2__S
*512 ANTENNA_mux_top_ipin_4\.mux_l2_in_3__A1
*513 ANTENNA_mux_top_ipin_4\.mux_l2_in_3__S
*514 ANTENNA_mux_top_ipin_5\.mux_l1_in_0__A0
*515 ANTENNA_mux_top_ipin_5\.mux_l1_in_0__A1
*516 ANTENNA_mux_top_ipin_5\.mux_l2_in_0__A0
*517 ANTENNA_mux_top_ipin_5\.mux_l2_in_0__S
*518 ANTENNA_mux_top_ipin_5\.mux_l2_in_1__A0
*519 ANTENNA_mux_top_ipin_5\.mux_l2_in_1__A1
*520 ANTENNA_mux_top_ipin_5\.mux_l2_in_1__S
*521 ANTENNA_mux_top_ipin_5\.mux_l2_in_2__A0
*522 ANTENNA_mux_top_ipin_5\.mux_l2_in_2__A1
*523 ANTENNA_mux_top_ipin_5\.mux_l2_in_2__S
*524 ANTENNA_mux_top_ipin_5\.mux_l2_in_3__A1
*525 ANTENNA_mux_top_ipin_5\.mux_l2_in_3__S
*526 ANTENNA_mux_top_ipin_6\.mux_l1_in_0__A0
*527 ANTENNA_mux_top_ipin_6\.mux_l1_in_0__A1
*528 ANTENNA_mux_top_ipin_6\.mux_l2_in_0__A0
*529 ANTENNA_mux_top_ipin_6\.mux_l2_in_1__A0
*530 ANTENNA_mux_top_ipin_6\.mux_l2_in_1__A1
*531 ANTENNA_mux_top_ipin_6\.mux_l2_in_2__A0
*532 ANTENNA_mux_top_ipin_6\.mux_l2_in_2__A1
*533 ANTENNA_mux_top_ipin_6\.mux_l2_in_3__A1
*534 ANTENNA_mux_top_ipin_7\.mux_l1_in_0__A0
*535 ANTENNA_mux_top_ipin_7\.mux_l1_in_0__A1
*536 ANTENNA_mux_top_ipin_7\.mux_l1_in_1__A0
*537 ANTENNA_mux_top_ipin_7\.mux_l1_in_1__A1
*538 ANTENNA_mux_top_ipin_7\.mux_l1_in_2__A0
*539 ANTENNA_mux_top_ipin_7\.mux_l1_in_2__A1
*540 ANTENNA_mux_top_ipin_7\.mux_l2_in_1__A0
*541 ANTENNA_mux_top_ipin_7\.mux_l2_in_2__A0
*542 ANTENNA_mux_top_ipin_7\.mux_l2_in_2__A1
*543 ANTENNA_mux_top_ipin_7\.mux_l2_in_3__A1
*544 ANTENNA_mux_top_ipin_8\.mux_l1_in_0__A0
*545 ANTENNA_mux_top_ipin_8\.mux_l1_in_0__A1
*546 ANTENNA_mux_top_ipin_8\.mux_l1_in_1__A0
*547 ANTENNA_mux_top_ipin_8\.mux_l1_in_1__A1
*548 ANTENNA_mux_top_ipin_8\.mux_l1_in_2__A0
*549 ANTENNA_mux_top_ipin_8\.mux_l1_in_2__A1
*550 ANTENNA_mux_top_ipin_8\.mux_l2_in_1__A0
*551 ANTENNA_mux_top_ipin_8\.mux_l2_in_2__A0
*552 ANTENNA_mux_top_ipin_8\.mux_l2_in_2__A1
*553 ANTENNA_mux_top_ipin_8\.mux_l2_in_3__A1
*554 ANTENNA_mux_top_ipin_9\.mux_l1_in_0__A0
*555 ANTENNA_mux_top_ipin_9\.mux_l1_in_0__A1
*556 ANTENNA_mux_top_ipin_9\.mux_l2_in_0__A0
*557 ANTENNA_mux_top_ipin_9\.mux_l2_in_1__A0
*558 ANTENNA_mux_top_ipin_9\.mux_l2_in_1__A1
*559 ANTENNA_mux_top_ipin_9\.mux_l2_in_2__A0
*560 ANTENNA_mux_top_ipin_9\.mux_l2_in_2__A1
*561 ANTENNA_mux_top_ipin_9\.mux_l2_in_3__A1
*562 ANTENNA_prog_clk_0_FTB00_A
*563 ANTENNA_prog_clk_0_W_FTB01_A
*564 ANTENNA_prog_clk_1_N_FTB01_A
*565 ANTENNA_prog_clk_1_S_FTB01_A
*566 ANTENNA_prog_clk_2_E_FTB01_A
*567 ANTENNA_prog_clk_2_W_FTB01_A
*568 ANTENNA_prog_clk_3_E_FTB01_A
*569 ANTENNA_prog_clk_3_W_FTB01_A
*570 FILLER_0_109
*571 FILLER_0_113
*572 FILLER_0_125
*573 FILLER_0_137
*574 FILLER_0_141
*575 FILLER_0_149
*576 FILLER_0_15
*577 FILLER_0_169
*578 FILLER_0_186
*579 FILLER_0_189
*580 FILLER_0_27
*581 FILLER_0_29
*582 FILLER_0_3
*583 FILLER_0_41
*584 FILLER_0_53
*585 FILLER_0_57
*586 FILLER_0_69
*587 FILLER_0_81
*588 FILLER_0_85
*589 FILLER_0_97
*590 FILLER_10_101
*591 FILLER_10_114
*592 FILLER_10_150
*593 FILLER_10_189
*594 FILLER_10_3
*595 FILLER_11_125
*596 FILLER_11_169
*597 FILLER_11_189
*598 FILLER_11_25
*599 FILLER_11_79
*600 FILLER_12_117
*601 FILLER_12_136
*602 FILLER_12_17
*603 FILLER_12_189
*604 FILLER_12_22
*605 FILLER_12_3
*606 FILLER_12_40
*607 FILLER_12_67
*608 FILLER_13_113
*609 FILLER_13_167
*610 FILLER_13_169
*611 FILLER_13_3
*612 FILLER_13_48
*613 FILLER_13_66
*614 FILLER_13_90
*615 FILLER_14_114
*616 FILLER_14_134
*617 FILLER_14_141
*618 FILLER_14_145
*619 FILLER_14_189
*620 FILLER_14_24
*621 FILLER_14_3
*622 FILLER_14_42
*623 FILLER_14_64
*624 FILLER_14_85
*625 FILLER_14_97
*626 FILLER_15_113
*627 FILLER_15_121
*628 FILLER_15_156
*629 FILLER_15_169
*630 FILLER_15_181
*631 FILLER_15_189
*632 FILLER_15_3
*633 FILLER_15_39
*634 FILLER_15_66
*635 FILLER_15_74
*636 FILLER_15_91
*637 FILLER_15_95
*638 FILLER_16_101
*639 FILLER_16_105
*640 FILLER_16_138
*641 FILLER_16_141
*642 FILLER_16_177
*643 FILLER_16_189
*644 FILLER_16_3
*645 FILLER_16_41
*646 FILLER_16_45
*647 FILLER_16_55
*648 FILLER_16_58
*649 FILLER_16_7
*650 FILLER_16_70
*651 FILLER_16_82
*652 FILLER_17_145
*653 FILLER_17_164
*654 FILLER_17_181
*655 FILLER_17_189
*656 FILLER_17_27
*657 FILLER_17_3
*658 FILLER_17_43
*659 FILLER_17_55
*660 FILLER_17_57
*661 FILLER_17_65
*662 FILLER_17_98
*663 FILLER_18_115
*664 FILLER_18_134
*665 FILLER_18_141
*666 FILLER_18_18
*667 FILLER_18_3
*668 FILLER_18_40
*669 FILLER_18_52
*670 FILLER_18_64
*671 FILLER_18_76
*672 FILLER_18_85
*673 FILLER_18_97
*674 FILLER_19_104
*675 FILLER_19_163
*676 FILLER_19_167
*677 FILLER_19_185
*678 FILLER_19_189
*679 FILLER_19_3
*680 FILLER_19_33
*681 FILLER_19_45
*682 FILLER_19_53
*683 FILLER_19_57
*684 FILLER_19_69
*685 FILLER_19_75
*686 FILLER_19_92
*687 FILLER_1_100
*688 FILLER_1_125
*689 FILLER_1_13
*690 FILLER_1_137
*691 FILLER_1_163
*692 FILLER_1_171
*693 FILLER_1_21
*694 FILLER_1_3
*695 FILLER_1_30
*696 FILLER_1_42
*697 FILLER_1_52
*698 FILLER_1_57
*699 FILLER_1_63
*700 FILLER_1_76
*701 FILLER_1_88
*702 FILLER_20_131
*703 FILLER_20_139
*704 FILLER_20_189
*705 FILLER_20_27
*706 FILLER_20_3
*707 FILLER_20_31
*708 FILLER_20_43
*709 FILLER_20_55
*710 FILLER_20_67
*711 FILLER_20_85
*712 FILLER_20_97
*713 FILLER_21_104
*714 FILLER_21_167
*715 FILLER_21_187
*716 FILLER_21_26
*717 FILLER_21_3
*718 FILLER_21_38
*719 FILLER_21_50
*720 FILLER_21_57
*721 FILLER_21_69
*722 FILLER_22_101
*723 FILLER_22_109
*724 FILLER_22_12
*725 FILLER_22_131
*726 FILLER_22_139
*727 FILLER_22_141
*728 FILLER_22_147
*729 FILLER_22_185
*730 FILLER_22_189
*731 FILLER_22_24
*732 FILLER_22_29
*733 FILLER_22_3
*734 FILLER_22_41
*735 FILLER_22_53
*736 FILLER_22_57
*737 FILLER_22_65
*738 FILLER_22_9
*739 FILLER_2_103
*740 FILLER_2_113
*741 FILLER_2_125
*742 FILLER_2_138
*743 FILLER_2_145
*744 FILLER_2_164
*745 FILLER_2_167
*746 FILLER_2_21
*747 FILLER_2_27
*748 FILLER_2_35
*749 FILLER_2_47
*750 FILLER_2_59
*751 FILLER_2_66
*752 FILLER_2_87
*753 FILLER_2_95
*754 FILLER_3_104
*755 FILLER_3_189
*756 FILLER_3_23
*757 FILLER_3_3
*758 FILLER_3_35
*759 FILLER_3_49
*760 FILLER_3_53
*761 FILLER_3_59
*762 FILLER_3_75
*763 FILLER_3_80
*764 FILLER_4_115
*765 FILLER_4_139
*766 FILLER_4_177
*767 FILLER_4_23
*768 FILLER_4_27
*769 FILLER_4_29
*770 FILLER_4_41
*771 FILLER_4_48
*772 FILLER_4_81
*773 FILLER_4_85
*774 FILLER_5_101
*775 FILLER_5_111
*776 FILLER_5_117
*777 FILLER_5_147
*778 FILLER_5_167
*779 FILLER_5_189
*780 FILLER_5_27
*781 FILLER_5_37
*782 FILLER_5_41
*783 FILLER_5_44
*784 FILLER_5_57
*785 FILLER_5_82
*786 FILLER_6_116
*787 FILLER_6_139
*788 FILLER_6_27
*789 FILLER_6_3
*790 FILLER_6_31
*791 FILLER_6_97
*792 FILLER_7_109
*793 FILLER_7_167
*794 FILLER_7_189
*795 FILLER_7_66
*796 FILLER_8_111
*797 FILLER_8_139
*798 FILLER_8_141
*799 FILLER_8_18
*800 FILLER_8_29
*801 FILLER_8_50
*802 FILLER_8_83
*803 FILLER_9_189
*804 FILLER_9_28
*805 FILLER_9_3
*806 FILLER_9_57
*807 PHY_0
*808 PHY_1
*809 PHY_10
*810 PHY_11
*811 PHY_12
*812 PHY_13
*813 PHY_14
*814 PHY_15
*815 PHY_16
*816 PHY_17
*817 PHY_18
*818 PHY_19
*819 PHY_2
*820 PHY_20
*821 PHY_21
*822 PHY_22
*823 PHY_23
*824 PHY_24
*825 PHY_25
*826 PHY_26
*827 PHY_27
*828 PHY_28
*829 PHY_29
*830 PHY_3
*831 PHY_30
*832 PHY_31
*833 PHY_32
*834 PHY_33
*835 PHY_34
*836 PHY_35
*837 PHY_36
*838 PHY_37
*839 PHY_38
*840 PHY_39
*841 PHY_4
*842 PHY_40
*843 PHY_41
*844 PHY_42
*845 PHY_43
*846 PHY_44
*847 PHY_45
*848 PHY_5
*849 PHY_6
*850 PHY_7
*851 PHY_8
*852 PHY_9
*853 TAP_100
*854 TAP_101
*855 TAP_102
*856 TAP_103
*857 TAP_104
*858 TAP_105
*859 TAP_106
*860 TAP_107
*861 TAP_108
*862 TAP_109
*863 TAP_110
*864 TAP_111
*865 TAP_112
*866 TAP_113
*867 TAP_114
*868 TAP_115
*869 TAP_116
*870 TAP_117
*871 TAP_118
*872 TAP_119
*873 TAP_120
*874 TAP_46
*875 TAP_47
*876 TAP_48
*877 TAP_49
*878 TAP_50
*879 TAP_51
*880 TAP_52
*881 TAP_53
*882 TAP_54
*883 TAP_55
*884 TAP_56
*885 TAP_57
*886 TAP_58
*887 TAP_59
*888 TAP_60
*889 TAP_61
*890 TAP_62
*891 TAP_63
*892 TAP_64
*893 TAP_65
*894 TAP_66
*895 TAP_67
*896 TAP_68
*897 TAP_69
*898 TAP_70
*899 TAP_71
*900 TAP_72
*901 TAP_73
*902 TAP_74
*903 TAP_75
*904 TAP_76
*905 TAP_77
*906 TAP_78
*907 TAP_79
*908 TAP_80
*909 TAP_81
*910 TAP_82
*911 TAP_83
*912 TAP_84
*913 TAP_85
*914 TAP_86
*915 TAP_87
*916 TAP_88
*917 TAP_89
*918 TAP_90
*919 TAP_91
*920 TAP_92
*921 TAP_93
*922 TAP_94
*923 TAP_95
*924 TAP_96
*925 TAP_97
*926 TAP_98
*927 TAP_99
*928 _16_
*929 _17_
*930 _18_
*931 _19_
*932 _20_
*933 _21_
*934 _22_
*935 _23_
*936 _24_
*937 _25_
*938 _26_
*939 _27_
*940 _28_
*941 _29_
*942 _30_
*943 _31_
*944 _32_
*945 _33_
*946 _34_
*947 _35_
*948 _36_
*949 _37_
*950 _38_
*951 _39_
*952 _40_
*953 _41_
*954 _42_
*955 _43_
*956 _44_
*957 _45_
*958 _46_
*959 _47_
*960 _48_
*961 _49_
*962 _50_
*963 _51_
*964 _52_
*965 _53_
*966 _54_
*967 _55_
*968 _56_
*969 _57_
*970 _58_
*971 _59_
*972 _60_
*973 _61_
*974 _62_
*975 _63_
*976 _64_
*977 _65_
*978 _66_
*979 _67_
*980 _68_
*981 _69_
*982 _70_
*983 _71_
*984 _72_
*985 _73_
*986 _74_
*987 clk_1_N_FTB01
*988 clk_1_S_FTB01
*989 clk_2_E_FTB01
*990 clk_2_W_FTB01
*991 clk_3_E_FTB01
*992 clk_3_W_FTB01
*993 mem_top_ipin_0\.sky130_fd_sc_hd__dfxtp_1_0_
*994 mem_top_ipin_0\.sky130_fd_sc_hd__dfxtp_1_1_
*995 mem_top_ipin_0\.sky130_fd_sc_hd__dfxtp_1_2_
*996 mem_top_ipin_0\.sky130_fd_sc_hd__dfxtp_1_3_
*997 mem_top_ipin_1\.sky130_fd_sc_hd__dfxtp_1_0_
*998 mem_top_ipin_1\.sky130_fd_sc_hd__dfxtp_1_1_
*999 mem_top_ipin_1\.sky130_fd_sc_hd__dfxtp_1_2_
*1000 mem_top_ipin_1\.sky130_fd_sc_hd__dfxtp_1_3_
*1001 mem_top_ipin_10\.sky130_fd_sc_hd__dfxtp_1_0_
*1002 mem_top_ipin_10\.sky130_fd_sc_hd__dfxtp_1_1_
*1003 mem_top_ipin_10\.sky130_fd_sc_hd__dfxtp_1_2_
*1004 mem_top_ipin_10\.sky130_fd_sc_hd__dfxtp_1_3_
*1005 mem_top_ipin_11\.sky130_fd_sc_hd__dfxtp_1_0_
*1006 mem_top_ipin_11\.sky130_fd_sc_hd__dfxtp_1_1_
*1007 mem_top_ipin_11\.sky130_fd_sc_hd__dfxtp_1_2_
*1008 mem_top_ipin_11\.sky130_fd_sc_hd__dfxtp_1_3_
*1009 mem_top_ipin_12\.sky130_fd_sc_hd__dfxtp_1_0_
*1010 mem_top_ipin_12\.sky130_fd_sc_hd__dfxtp_1_1_
*1011 mem_top_ipin_12\.sky130_fd_sc_hd__dfxtp_1_2_
*1012 mem_top_ipin_12\.sky130_fd_sc_hd__dfxtp_1_3_
*1013 mem_top_ipin_13\.sky130_fd_sc_hd__dfxtp_1_0_
*1014 mem_top_ipin_13\.sky130_fd_sc_hd__dfxtp_1_1_
*1015 mem_top_ipin_13\.sky130_fd_sc_hd__dfxtp_1_2_
*1016 mem_top_ipin_13\.sky130_fd_sc_hd__dfxtp_1_3_
*1017 mem_top_ipin_14\.sky130_fd_sc_hd__dfxtp_1_0_
*1018 mem_top_ipin_14\.sky130_fd_sc_hd__dfxtp_1_1_
*1019 mem_top_ipin_14\.sky130_fd_sc_hd__dfxtp_1_2_
*1020 mem_top_ipin_14\.sky130_fd_sc_hd__dfxtp_1_3_
*1021 mem_top_ipin_15\.sky130_fd_sc_hd__dfxtp_1_0_
*1022 mem_top_ipin_15\.sky130_fd_sc_hd__dfxtp_1_1_
*1023 mem_top_ipin_15\.sky130_fd_sc_hd__dfxtp_1_2_
*1024 mem_top_ipin_15\.sky130_fd_sc_hd__dfxtp_1_3_
*1025 mem_top_ipin_2\.sky130_fd_sc_hd__dfxtp_1_0_
*1026 mem_top_ipin_2\.sky130_fd_sc_hd__dfxtp_1_1_
*1027 mem_top_ipin_2\.sky130_fd_sc_hd__dfxtp_1_2_
*1028 mem_top_ipin_2\.sky130_fd_sc_hd__dfxtp_1_3_
*1029 mem_top_ipin_3\.sky130_fd_sc_hd__dfxtp_1_0_
*1030 mem_top_ipin_3\.sky130_fd_sc_hd__dfxtp_1_1_
*1031 mem_top_ipin_3\.sky130_fd_sc_hd__dfxtp_1_2_
*1032 mem_top_ipin_3\.sky130_fd_sc_hd__dfxtp_1_3_
*1033 mem_top_ipin_4\.sky130_fd_sc_hd__dfxtp_1_0_
*1034 mem_top_ipin_4\.sky130_fd_sc_hd__dfxtp_1_1_
*1035 mem_top_ipin_4\.sky130_fd_sc_hd__dfxtp_1_2_
*1036 mem_top_ipin_4\.sky130_fd_sc_hd__dfxtp_1_3_
*1037 mem_top_ipin_5\.sky130_fd_sc_hd__dfxtp_1_0_
*1038 mem_top_ipin_5\.sky130_fd_sc_hd__dfxtp_1_1_
*1039 mem_top_ipin_5\.sky130_fd_sc_hd__dfxtp_1_2_
*1040 mem_top_ipin_5\.sky130_fd_sc_hd__dfxtp_1_3_
*1041 mem_top_ipin_6\.sky130_fd_sc_hd__dfxtp_1_0_