*SPEF "ieee 1481-1999"
*DESIGN "cbx_1__0_"
*DATE "11:11:11 Fri 11 11, 1111"
*VENDOR "OpenRCX"
*PROGRAM "Parallel Extraction"
*VERSION "1.0"
*DESIGN_FLOW "NAME_SCOPE LOCAL" "PIN_CAP NONE"
*DIVIDER /
*DELIMITER :
*BUS_DELIMITER []
*T_UNIT 1 NS
*C_UNIT 1 PF
*R_UNIT 1 OHM
*L_UNIT 1 HENRY

*NAME_MAP
*1 IO_ISOL_N
*2 SC_IN_BOT
*3 SC_IN_TOP
*4 SC_OUT_BOT
*5 SC_OUT_TOP
*8 bottom_grid_pin_0_
*9 bottom_grid_pin_10_
*10 bottom_grid_pin_12_
*11 bottom_grid_pin_14_
*12 bottom_grid_pin_16_
*13 bottom_grid_pin_2_
*14 bottom_grid_pin_4_
*15 bottom_grid_pin_6_
*16 bottom_grid_pin_8_
*17 ccff_head
*18 ccff_tail
*19 chanx_left_in[0]
*20 chanx_left_in[10]
*21 chanx_left_in[11]
*22 chanx_left_in[12]
*23 chanx_left_in[13]
*24 chanx_left_in[14]
*25 chanx_left_in[15]
*26 chanx_left_in[16]
*27 chanx_left_in[17]
*28 chanx_left_in[18]
*29 chanx_left_in[19]
*30 chanx_left_in[1]
*31 chanx_left_in[2]
*32 chanx_left_in[3]
*33 chanx_left_in[4]
*34 chanx_left_in[5]
*35 chanx_left_in[6]
*36 chanx_left_in[7]
*37 chanx_left_in[8]
*38 chanx_left_in[9]
*39 chanx_left_out[0]
*40 chanx_left_out[10]
*41 chanx_left_out[11]
*42 chanx_left_out[12]
*43 chanx_left_out[13]
*44 chanx_left_out[14]
*45 chanx_left_out[15]
*46 chanx_left_out[16]
*47 chanx_left_out[17]
*48 chanx_left_out[18]
*49 chanx_left_out[19]
*50 chanx_left_out[1]
*51 chanx_left_out[2]
*52 chanx_left_out[3]
*53 chanx_left_out[4]
*54 chanx_left_out[5]
*55 chanx_left_out[6]
*56 chanx_left_out[7]
*57 chanx_left_out[8]
*58 chanx_left_out[9]
*59 chanx_right_in[0]
*60 chanx_right_in[10]
*61 chanx_right_in[11]
*62 chanx_right_in[12]
*63 chanx_right_in[13]
*64 chanx_right_in[14]
*65 chanx_right_in[15]
*66 chanx_right_in[16]
*67 chanx_right_in[17]
*68 chanx_right_in[18]
*69 chanx_right_in[19]
*70 chanx_right_in[1]
*71 chanx_right_in[2]
*72 chanx_right_in[3]
*73 chanx_right_in[4]
*74 chanx_right_in[5]
*75 chanx_right_in[6]
*76 chanx_right_in[7]
*77 chanx_right_in[8]
*78 chanx_right_in[9]
*79 chanx_right_out[0]
*80 chanx_right_out[10]
*81 chanx_right_out[11]
*82 chanx_right_out[12]
*83 chanx_right_out[13]
*84 chanx_right_out[14]
*85 chanx_right_out[15]
*86 chanx_right_out[16]
*87 chanx_right_out[17]
*88 chanx_right_out[18]
*89 chanx_right_out[19]
*90 chanx_right_out[1]
*91 chanx_right_out[2]
*92 chanx_right_out[3]
*93 chanx_right_out[4]
*94 chanx_right_out[5]
*95 chanx_right_out[6]
*96 chanx_right_out[7]
*97 chanx_right_out[8]
*98 chanx_right_out[9]
*99 gfpga_pad_EMBEDDED_IO_HD_SOC_DIR[0]
*100 gfpga_pad_EMBEDDED_IO_HD_SOC_DIR[1]
*101 gfpga_pad_EMBEDDED_IO_HD_SOC_DIR[2]
*102 gfpga_pad_EMBEDDED_IO_HD_SOC_DIR[3]
*103 gfpga_pad_EMBEDDED_IO_HD_SOC_DIR[4]
*104 gfpga_pad_EMBEDDED_IO_HD_SOC_DIR[5]
*105 gfpga_pad_EMBEDDED_IO_HD_SOC_DIR[6]
*106 gfpga_pad_EMBEDDED_IO_HD_SOC_DIR[7]
*107 gfpga_pad_EMBEDDED_IO_HD_SOC_DIR[8]
*108 gfpga_pad_EMBEDDED_IO_HD_SOC_IN[0]
*109 gfpga_pad_EMBEDDED_IO_HD_SOC_IN[1]
*110 gfpga_pad_EMBEDDED_IO_HD_SOC_IN[2]
*111 gfpga_pad_EMBEDDED_IO_HD_SOC_IN[3]
*112 gfpga_pad_EMBEDDED_IO_HD_SOC_IN[4]
*113 gfpga_pad_EMBEDDED_IO_HD_SOC_IN[5]
*114 gfpga_pad_EMBEDDED_IO_HD_SOC_IN[6]
*115 gfpga_pad_EMBEDDED_IO_HD_SOC_IN[7]
*116 gfpga_pad_EMBEDDED_IO_HD_SOC_IN[8]
*117 gfpga_pad_EMBEDDED_IO_HD_SOC_OUT[0]
*118 gfpga_pad_EMBEDDED_IO_HD_SOC_OUT[1]
*119 gfpga_pad_EMBEDDED_IO_HD_SOC_OUT[2]
*120 gfpga_pad_EMBEDDED_IO_HD_SOC_OUT[3]
*121 gfpga_pad_EMBEDDED_IO_HD_SOC_OUT[4]
*122 gfpga_pad_EMBEDDED_IO_HD_SOC_OUT[5]
*123 gfpga_pad_EMBEDDED_IO_HD_SOC_OUT[6]
*124 gfpga_pad_EMBEDDED_IO_HD_SOC_OUT[7]
*125 gfpga_pad_EMBEDDED_IO_HD_SOC_OUT[8]
*126 prog_clk_0_N_in
*127 prog_clk_0_W_out
*128 top_width_0_height_0__pin_0_
*129 top_width_0_height_0__pin_10_
*130 top_width_0_height_0__pin_11_lower
*131 top_width_0_height_0__pin_11_upper
*132 top_width_0_height_0__pin_12_
*133 top_width_0_height_0__pin_13_lower
*134 top_width_0_height_0__pin_13_upper
*135 top_width_0_height_0__pin_14_
*136 top_width_0_height_0__pin_15_lower
*137 top_width_0_height_0__pin_15_upper
*138 top_width_0_height_0__pin_16_
*139 top_width_0_height_0__pin_17_lower
*140 top_width_0_height_0__pin_17_upper
*141 top_width_0_height_0__pin_1_lower
*142 top_width_0_height_0__pin_1_upper
*143 top_width_0_height_0__pin_2_
*144 top_width_0_height_0__pin_3_lower
*145 top_width_0_height_0__pin_3_upper
*146 top_width_0_height_0__pin_4_
*147 top_width_0_height_0__pin_5_lower
*148 top_width_0_height_0__pin_5_upper
*149 top_width_0_height_0__pin_6_
*150 top_width_0_height_0__pin_7_lower
*151 top_width_0_height_0__pin_7_upper
*152 top_width_0_height_0__pin_8_
*153 top_width_0_height_0__pin_9_lower
*154 top_width_0_height_0__pin_9_upper
*155 _00_
*156 _01_
*157 _02_
*158 _03_
*159 _04_
*160 _05_
*161 _06_
*162 _07_
*163 _08_
*164 logical_tile_io_mode_io__0\.ccff_head
*165 logical_tile_io_mode_io__0\.ccff_tail
*166 logical_tile_io_mode_io__0\.gfpga_pad_EMBEDDED_IO_HD_SOC_DIR
*167 logical_tile_io_mode_io__0\.gfpga_pad_EMBEDDED_IO_HD_SOC_OUT
*168 logical_tile_io_mode_io__0\.ltile_phy_iopad_0\.EMBEDDED_IO_HD_0_\.SOC_DIR_N
*169 logical_tile_io_mode_io__0\.ltile_phy_iopad_0\.EMBEDDED_IO_HD_sky130_fd_sc_hd__dfxtp_1_mem\.prog_clk
*170 logical_tile_io_mode_io__1\.ccff_tail
*171 logical_tile_io_mode_io__1\.gfpga_pad_EMBEDDED_IO_HD_SOC_DIR
*172 logical_tile_io_mode_io__1\.gfpga_pad_EMBEDDED_IO_HD_SOC_OUT
*173 logical_tile_io_mode_io__1\.ltile_phy_iopad_0\.EMBEDDED_IO_HD_0_\.SOC_DIR_N
*174 logical_tile_io_mode_io__2\.ccff_tail
*175 logical_tile_io_mode_io__2\.gfpga_pad_EMBEDDED_IO_HD_SOC_DIR
*176 logical_tile_io_mode_io__2\.gfpga_pad_EMBEDDED_IO_HD_SOC_OUT
*177 logical_tile_io_mode_io__2\.ltile_phy_iopad_0\.EMBEDDED_IO_HD_0_\.SOC_DIR_N
*178 logical_tile_io_mode_io__3\.ccff_tail
*179 logical_tile_io_mode_io__3\.gfpga_pad_EMBEDDED_IO_HD_SOC_DIR
*180 logical_tile_io_mode_io__3\.gfpga_pad_EMBEDDED_IO_HD_SOC_OUT
*181 logical_tile_io_mode_io__3\.ltile_phy_iopad_0\.EMBEDDED_IO_HD_0_\.SOC_DIR_N
*182 logical_tile_io_mode_io__4\.ccff_tail
*183 logical_tile_io_mode_io__4\.gfpga_pad_EMBEDDED_IO_HD_SOC_DIR
*184 logical_tile_io_mode_io__4\.gfpga_pad_EMBEDDED_IO_HD_SOC_OUT
*185 logical_tile_io_mode_io__4\.ltile_phy_iopad_0\.EMBEDDED_IO_HD_0_\.SOC_DIR_N
*186 logical_tile_io_mode_io__5\.ccff_tail
*187 logical_tile_io_mode_io__5\.gfpga_pad_EMBEDDED_IO_HD_SOC_DIR
*188 logical_tile_io_mode_io__5\.gfpga_pad_EMBEDDED_IO_HD_SOC_OUT
*189 logical_tile_io_mode_io__5\.ltile_phy_iopad_0\.EMBEDDED_IO_HD_0_\.SOC_DIR_N
*190 logical_tile_io_mode_io__6\.ccff_tail
*191 logical_tile_io_mode_io__6\.gfpga_pad_EMBEDDED_IO_HD_SOC_DIR
*192 logical_tile_io_mode_io__6\.gfpga_pad_EMBEDDED_IO_HD_SOC_OUT
*193 logical_tile_io_mode_io__6\.ltile_phy_iopad_0\.EMBEDDED_IO_HD_0_\.SOC_DIR_N
*194 logical_tile_io_mode_io__7\.ccff_tail
*195 logical_tile_io_mode_io__7\.gfpga_pad_EMBEDDED_IO_HD_SOC_DIR
*196 logical_tile_io_mode_io__7\.gfpga_pad_EMBEDDED_IO_HD_SOC_OUT
*197 logical_tile_io_mode_io__7\.ltile_phy_iopad_0\.EMBEDDED_IO_HD_0_\.SOC_DIR_N
*198 logical_tile_io_mode_io__8\.gfpga_pad_EMBEDDED_IO_HD_SOC_DIR
*199 logical_tile_io_mode_io__8\.gfpga_pad_EMBEDDED_IO_HD_SOC_OUT
*200 logical_tile_io_mode_io__8\.ltile_phy_iopad_0\.EMBEDDED_IO_HD_0_\.SOC_DIR_N
*201 mem_top_ipin_0\.ccff_tail
*202 mem_top_ipin_0\.mem_out\[0\]
*203 mem_top_ipin_0\.mem_out\[1\]
*204 mem_top_ipin_0\.mem_out\[2\]
*205 mem_top_ipin_1\.ccff_tail
*206 mem_top_ipin_1\.mem_out\[0\]
*207 mem_top_ipin_1\.mem_out\[1\]
*208 mem_top_ipin_1\.mem_out\[2\]
*209 mem_top_ipin_2\.ccff_tail
*210 mem_top_ipin_2\.mem_out\[0\]
*211 mem_top_ipin_2\.mem_out\[1\]
*212 mem_top_ipin_2\.mem_out\[2\]
*213 mem_top_ipin_3\.ccff_tail
*214 mem_top_ipin_3\.mem_out\[0\]
*215 mem_top_ipin_3\.mem_out\[1\]
*216 mem_top_ipin_3\.mem_out\[2\]
*217 mem_top_ipin_4\.ccff_tail
*218 mem_top_ipin_4\.mem_out\[0\]
*219 mem_top_ipin_4\.mem_out\[1\]
*220 mem_top_ipin_4\.mem_out\[2\]
*221 mem_top_ipin_5\.ccff_tail
*222 mem_top_ipin_5\.mem_out\[0\]
*223 mem_top_ipin_5\.mem_out\[1\]
*224 mem_top_ipin_5\.mem_out\[2\]
*225 mem_top_ipin_6\.ccff_tail
*226 mem_top_ipin_6\.mem_out\[0\]
*227 mem_top_ipin_6\.mem_out\[1\]
*228 mem_top_ipin_6\.mem_out\[2\]
*229 mem_top_ipin_7\.ccff_tail
*230 mem_top_ipin_7\.mem_out\[0\]
*231 mem_top_ipin_7\.mem_out\[1\]
*232 mem_top_ipin_7\.mem_out\[2\]
*233 mem_top_ipin_8\.mem_out\[0\]
*234 mem_top_ipin_8\.mem_out\[1\]
*235 mem_top_ipin_8\.mem_out\[2\]
*236 mux_top_ipin_0\.sky130_fd_sc_hd__mux2_1_0_X
*237 mux_top_ipin_0\.sky130_fd_sc_hd__mux2_1_1_X
*238 mux_top_ipin_0\.sky130_fd_sc_hd__mux2_1_2_X
*239 mux_top_ipin_0\.sky130_fd_sc_hd__mux2_1_3_X
*240 mux_top_ipin_0\.sky130_fd_sc_hd__mux2_1_4_X
*241 mux_top_ipin_0\.sky130_fd_sc_hd__mux2_1_5_X
*242 mux_top_ipin_0\.sky130_fd_sc_hd__mux2_1_6_X
*243 mux_top_ipin_0\.sky130_fd_sc_hd__mux2_1_7_X
*244 mux_top_ipin_0\.sky130_fd_sc_hd__mux2_1_8_X
*245 mux_top_ipin_0\.sky130_fd_sc_hd__mux2_1_9_X
*246 mux_top_ipin_1\.sky130_fd_sc_hd__mux2_1_0_X
*247 mux_top_ipin_1\.sky130_fd_sc_hd__mux2_1_1_X
*248 mux_top_ipin_1\.sky130_fd_sc_hd__mux2_1_2_X
*249 mux_top_ipin_1\.sky130_fd_sc_hd__mux2_1_3_X
*250 mux_top_ipin_1\.sky130_fd_sc_hd__mux2_1_4_X
*251 mux_top_ipin_1\.sky130_fd_sc_hd__mux2_1_5_X
*252 mux_top_ipin_1\.sky130_fd_sc_hd__mux2_1_6_X
*253 mux_top_ipin_1\.sky130_fd_sc_hd__mux2_1_7_X
*254 mux_top_ipin_1\.sky130_fd_sc_hd__mux2_1_8_X
*255 mux_top_ipin_1\.sky130_fd_sc_hd__mux2_1_9_X
*256 mux_top_ipin_2\.sky130_fd_sc_hd__mux2_1_0_X
*257 mux_top_ipin_2\.sky130_fd_sc_hd__mux2_1_1_X
*258 mux_top_ipin_2\.sky130_fd_sc_hd__mux2_1_2_X
*259 mux_top_ipin_2\.sky130_fd_sc_hd__mux2_1_3_X
*260 mux_top_ipin_2\.sky130_fd_sc_hd__mux2_1_4_X
*261 mux_top_ipin_2\.sky130_fd_sc_hd__mux2_1_5_X
*262 mux_top_ipin_2\.sky130_fd_sc_hd__mux2_1_6_X
*263 mux_top_ipin_2\.sky130_fd_sc_hd__mux2_1_7_X
*264 mux_top_ipin_2\.sky130_fd_sc_hd__mux2_1_8_X
*265 mux_top_ipin_2\.sky130_fd_sc_hd__mux2_1_9_X
*266 mux_top_ipin_3\.sky130_fd_sc_hd__mux2_1_0_X
*267 mux_top_ipin_3\.sky130_fd_sc_hd__mux2_1_1_X
*268 mux_top_ipin_3\.sky130_fd_sc_hd__mux2_1_2_X
*269 mux_top_ipin_3\.sky130_fd_sc_hd__mux2_1_3_X
*270 mux_top_ipin_3\.sky130_fd_sc_hd__mux2_1_4_X
*271 mux_top_ipin_3\.sky130_fd_sc_hd__mux2_1_5_X
*272 mux_top_ipin_3\.sky130_fd_sc_hd__mux2_1_6_X
*273 mux_top_ipin_3\.sky130_fd_sc_hd__mux2_1_7_X
*274 mux_top_ipin_3\.sky130_fd_sc_hd__mux2_1_8_X
*275 mux_top_ipin_3\.sky130_fd_sc_hd__mux2_1_9_X
*276 mux_top_ipin_4\.sky130_fd_sc_hd__mux2_1_0_X
*277 mux_top_ipin_4\.sky130_fd_sc_hd__mux2_1_1_X
*278 mux_top_ipin_4\.sky130_fd_sc_hd__mux2_1_2_X
*279 mux_top_ipin_4\.sky130_fd_sc_hd__mux2_1_3_X
*280 mux_top_ipin_4\.sky130_fd_sc_hd__mux2_1_4_X
*281 mux_top_ipin_4\.sky130_fd_sc_hd__mux2_1_5_X
*282 mux_top_ipin_4\.sky130_fd_sc_hd__mux2_1_6_X
*283 mux_top_ipin_4\.sky130_fd_sc_hd__mux2_1_7_X
*284 mux_top_ipin_4\.sky130_fd_sc_hd__mux2_1_8_X
*285 mux_top_ipin_4\.sky130_fd_sc_hd__mux2_1_9_X
*286 mux_top_ipin_5\.sky130_fd_sc_hd__mux2_1_0_X
*287 mux_top_ipin_5\.sky130_fd_sc_hd__mux2_1_1_X
*288 mux_top_ipin_5\.sky130_fd_sc_hd__mux2_1_2_X
*289 mux_top_ipin_5\.sky130_fd_sc_hd__mux2_1_3_X
*290 mux_top_ipin_5\.sky130_fd_sc_hd__mux2_1_4_X
*291 mux_top_ipin_5\.sky130_fd_sc_hd__mux2_1_5_X
*292 mux_top_ipin_5\.sky130_fd_sc_hd__mux2_1_6_X
*293 mux_top_ipin_5\.sky130_fd_sc_hd__mux2_1_7_X
*294 mux_top_ipin_5\.sky130_fd_sc_hd__mux2_1_8_X
*295 mux_top_ipin_5\.sky130_fd_sc_hd__mux2_1_9_X
*296 mux_top_ipin_6\.sky130_fd_sc_hd__mux2_1_0_X
*297 mux_top_ipin_6\.sky130_fd_sc_hd__mux2_1_1_X
*298 mux_top_ipin_6\.sky130_fd_sc_hd__mux2_1_2_X
*299 mux_top_ipin_6\.sky130_fd_sc_hd__mux2_1_3_X
*300 mux_top_ipin_6\.sky130_fd_sc_hd__mux2_1_4_X
*301 mux_top_ipin_6\.sky130_fd_sc_hd__mux2_1_5_X
*302 mux_top_ipin_6\.sky130_fd_sc_hd__mux2_1_6_X
*303 mux_top_ipin_6\.sky130_fd_sc_hd__mux2_1_7_X
*304 mux_top_ipin_6\.sky130_fd_sc_hd__mux2_1_8_X
*305 mux_top_ipin_6\.sky130_fd_sc_hd__mux2_1_9_X
*306 mux_top_ipin_7\.sky130_fd_sc_hd__mux2_1_0_X
*307 mux_top_ipin_7\.sky130_fd_sc_hd__mux2_1_1_X
*308 mux_top_ipin_7\.sky130_fd_sc_hd__mux2_1_2_X
*309 mux_top_ipin_7\.sky130_fd_sc_hd__mux2_1_3_X
*310 mux_top_ipin_7\.sky130_fd_sc_hd__mux2_1_4_X
*311 mux_top_ipin_7\.sky130_fd_sc_hd__mux2_1_5_X
*312 mux_top_ipin_7\.sky130_fd_sc_hd__mux2_1_6_X
*313 mux_top_ipin_7\.sky130_fd_sc_hd__mux2_1_7_X
*314 mux_top_ipin_7\.sky130_fd_sc_hd__mux2_1_8_X
*315 mux_top_ipin_7\.sky130_fd_sc_hd__mux2_1_9_X
*316 mux_top_ipin_8\.sky130_fd_sc_hd__mux2_1_0_X
*317 mux_top_ipin_8\.sky130_fd_sc_hd__mux2_1_1_X
*318 mux_top_ipin_8\.sky130_fd_sc_hd__mux2_1_2_X
*319 mux_top_ipin_8\.sky130_fd_sc_hd__mux2_1_3_X
*320 mux_top_ipin_8\.sky130_fd_sc_hd__mux2_1_4_X
*321 mux_top_ipin_8\.sky130_fd_sc_hd__mux2_1_5_X
*322 mux_top_ipin_8\.sky130_fd_sc_hd__mux2_1_6_X
*323 mux_top_ipin_8\.sky130_fd_sc_hd__mux2_1_7_X
*324 mux_top_ipin_8\.sky130_fd_sc_hd__mux2_1_8_X
*325 mux_top_ipin_8\.sky130_fd_sc_hd__mux2_1_9_X
*326 ANTENNA__18__A
*327 ANTENNA__19__A
*328 ANTENNA__20__A
*329 ANTENNA__21__A
*330 ANTENNA__22__A
*331 ANTENNA__23__A
*332 ANTENNA__24__A
*333 ANTENNA__25__A
*334 ANTENNA__26__A
*335 ANTENNA__27__A
*336 ANTENNA__28__A
*337 ANTENNA__29__A
*338 ANTENNA__30__A
*339 ANTENNA__31__A
*340 ANTENNA__32__A
*341 ANTENNA__33__A
*342 ANTENNA__34__A
*343 ANTENNA__35__A
*344 ANTENNA__36__A
*345 ANTENNA__37__A
*346 ANTENNA__38__A
*347 ANTENNA__39__A
*348 ANTENNA__40__A
*349 ANTENNA__41__A
*350 ANTENNA__42__A
*351 ANTENNA__43__A
*352 ANTENNA__44__A
*353 ANTENNA__45__A
*354 ANTENNA__46__A
*355 ANTENNA__47__A
*356 ANTENNA__48__A
*357 ANTENNA__49__A
*358 ANTENNA__50__A
*359 ANTENNA__51__A
*360 ANTENNA__52__A
*361 ANTENNA__53__A
*362 ANTENNA__54__A
*363 ANTENNA__73__A
*364 ANTENNA__77__A
*365 ANTENNA__78__A
*366 ANTENNA__79__A
*367 ANTENNA__80__A
*368 ANTENNA__81__A
*369 ANTENNA__82__A
*370 ANTENNA__83__A
*371 ANTENNA__84__A
*372 ANTENNA__85__A
*373 ANTENNA__86__A
*374 ANTENNA_logical_tile_io_mode_io__0\.ltile_phy_iopad_0\.EMBEDDED_IO_HD_0_\.IN_PROTECT_GATE_A
*375 ANTENNA_logical_tile_io_mode_io__0\.ltile_phy_iopad_0\.EMBEDDED_IO_HD_0_\.ISOL_EN_GATE_B_N
*376 ANTENNA_logical_tile_io_mode_io__0\.ltile_phy_iopad_0\.EMBEDDED_IO_HD_0_\.OUT_PROTECT_GATE_A
*377 ANTENNA_logical_tile_io_mode_io__1\.ltile_phy_iopad_0\.EMBEDDED_IO_HD_0_\.IN_PROTECT_GATE_A
*378 ANTENNA_logical_tile_io_mode_io__1\.ltile_phy_iopad_0\.EMBEDDED_IO_HD_0_\.ISOL_EN_GATE_B_N
*379 ANTENNA_logical_tile_io_mode_io__1\.ltile_phy_iopad_0\.EMBEDDED_IO_HD_0_\.OUT_PROTECT_GATE_A
*380 ANTENNA_logical_tile_io_mode_io__2\.ltile_phy_iopad_0\.EMBEDDED_IO_HD_0_\.IN_PROTECT_GATE_A
*381 ANTENNA_logical_tile_io_mode_io__2\.ltile_phy_iopad_0\.EMBEDDED_IO_HD_0_\.ISOL_EN_GATE_B_N
*382 ANTENNA_logical_tile_io_mode_io__2\.ltile_phy_iopad_0\.EMBEDDED_IO_HD_0_\.OUT_PROTECT_GATE_A
*383 ANTENNA_logical_tile_io_mode_io__3\.ltile_phy_iopad_0\.EMBEDDED_IO_HD_0_\.IN_PROTECT_GATE_A
*384 ANTENNA_logical_tile_io_mode_io__3\.ltile_phy_iopad_0\.EMBEDDED_IO_HD_0_\.ISOL_EN_GATE_B_N
*385 ANTENNA_logical_tile_io_mode_io__3\.ltile_phy_iopad_0\.EMBEDDED_IO_HD_0_\.OUT_PROTECT_GATE_A
*386 ANTENNA_logical_tile_io_mode_io__4\.ltile_phy_iopad_0\.EMBEDDED_IO_HD_0_\.IN_PROTECT_GATE_A
*387 ANTENNA_logical_tile_io_mode_io__4\.ltile_phy_iopad_0\.EMBEDDED_IO_HD_0_\.ISOL_EN_GATE_B_N
*388 ANTENNA_logical_tile_io_mode_io__4\.ltile_phy_iopad_0\.EMBEDDED_IO_HD_0_\.OUT_PROTECT_GATE_A
*389 ANTENNA_logical_tile_io_mode_io__5\.ltile_phy_iopad_0\.EMBEDDED_IO_HD_0_\.IN_PROTECT_GATE_A
*390 ANTENNA_logical_tile_io_mode_io__5\.ltile_phy_iopad_0\.EMBEDDED_IO_HD_0_\.ISOL_EN_GATE_B_N
*391 ANTENNA_logical_tile_io_mode_io__5\.ltile_phy_iopad_0\.EMBEDDED_IO_HD_0_\.OUT_PROTECT_GATE_A
*392 ANTENNA_logical_tile_io_mode_io__6\.ltile_phy_iopad_0\.EMBEDDED_IO_HD_0_\.IN_PROTECT_GATE_A
*393 ANTENNA_logical_tile_io_mode_io__6\.ltile_phy_iopad_0\.EMBEDDED_IO_HD_0_\.ISOL_EN_GATE_B_N
*394 ANTENNA_logical_tile_io_mode_io__6\.ltile_phy_iopad_0\.EMBEDDED_IO_HD_0_\.OUT_PROTECT_GATE_A
*395 ANTENNA_logical_tile_io_mode_io__7\.ltile_phy_iopad_0\.EMBEDDED_IO_HD_0_\.IN_PROTECT_GATE_A
*396 ANTENNA_logical_tile_io_mode_io__7\.ltile_phy_iopad_0\.EMBEDDED_IO_HD_0_\.ISOL_EN_GATE_B_N
*397 ANTENNA_logical_tile_io_mode_io__7\.ltile_phy_iopad_0\.EMBEDDED_IO_HD_0_\.OUT_PROTECT_GATE_A
*398 ANTENNA_logical_tile_io_mode_io__8\.ltile_phy_iopad_0\.EMBEDDED_IO_HD_0_\.IN_PROTECT_GATE_A
*399 ANTENNA_logical_tile_io_mode_io__8\.ltile_phy_iopad_0\.EMBEDDED_IO_HD_0_\.ISOL_EN_GATE_B_N
*400 ANTENNA_logical_tile_io_mode_io__8\.ltile_phy_iopad_0\.EMBEDDED_IO_HD_0_\.OUT_PROTECT_GATE_A
*401 ANTENNA_mem_top_ipin_0\.sky130_fd_sc_hd__dfxtp_1_0__D
*402 ANTENNA_mux_top_ipin_0\.mux_l1_in_0__A0
*403 ANTENNA_mux_top_ipin_0\.mux_l1_in_0__A1
*404 ANTENNA_mux_top_ipin_0\.mux_l1_in_1__A0
*405 ANTENNA_mux_top_ipin_0\.mux_l1_in_1__A1
*406 ANTENNA_mux_top_ipin_0\.mux_l1_in_2__A0
*407 ANTENNA_mux_top_ipin_0\.mux_l1_in_2__A1
*408 ANTENNA_mux_top_ipin_0\.mux_l2_in_1__A0
*409 ANTENNA_mux_top_ipin_0\.mux_l2_in_2__A0
*410 ANTENNA_mux_top_ipin_0\.mux_l2_in_2__A1
*411 ANTENNA_mux_top_ipin_0\.mux_l2_in_3__A1
*412 ANTENNA_mux_top_ipin_1\.mux_l1_in_0__A0
*413 ANTENNA_mux_top_ipin_1\.mux_l1_in_0__A1
*414 ANTENNA_mux_top_ipin_1\.mux_l1_in_1__A0
*415 ANTENNA_mux_top_ipin_1\.mux_l1_in_1__A1
*416 ANTENNA_mux_top_ipin_1\.mux_l1_in_2__A0
*417 ANTENNA_mux_top_ipin_1\.mux_l1_in_2__A1
*418 ANTENNA_mux_top_ipin_1\.mux_l2_in_1__A0
*419 ANTENNA_mux_top_ipin_1\.mux_l2_in_2__A0
*420 ANTENNA_mux_top_ipin_1\.mux_l2_in_2__A1
*421 ANTENNA_mux_top_ipin_1\.mux_l2_in_3__A1
*422 ANTENNA_mux_top_ipin_2\.mux_l1_in_0__A0
*423 ANTENNA_mux_top_ipin_2\.mux_l1_in_0__A1
*424 ANTENNA_mux_top_ipin_2\.mux_l1_in_1__A0
*425 ANTENNA_mux_top_ipin_2\.mux_l1_in_1__A1
*426 ANTENNA_mux_top_ipin_2\.mux_l1_in_2__A0
*427 ANTENNA_mux_top_ipin_2\.mux_l1_in_2__A1
*428 ANTENNA_mux_top_ipin_2\.mux_l2_in_1__A0
*429 ANTENNA_mux_top_ipin_2\.mux_l2_in_2__A0
*430 ANTENNA_mux_top_ipin_2\.mux_l2_in_2__A1
*431 ANTENNA_mux_top_ipin_2\.mux_l2_in_3__A1
*432 ANTENNA_mux_top_ipin_3\.mux_l1_in_0__A0
*433 ANTENNA_mux_top_ipin_3\.mux_l1_in_0__A1
*434 ANTENNA_mux_top_ipin_3\.mux_l1_in_1__A0
*435 ANTENNA_mux_top_ipin_3\.mux_l1_in_1__A1
*436 ANTENNA_mux_top_ipin_3\.mux_l1_in_2__A0
*437 ANTENNA_mux_top_ipin_3\.mux_l1_in_2__A1
*438 ANTENNA_mux_top_ipin_3\.mux_l2_in_1__A0
*439 ANTENNA_mux_top_ipin_3\.mux_l2_in_2__A0
*440 ANTENNA_mux_top_ipin_3\.mux_l2_in_2__A1
*441 ANTENNA_mux_top_ipin_3\.mux_l2_in_3__A1
*442 ANTENNA_mux_top_ipin_4\.mux_l1_in_0__A0
*443 ANTENNA_mux_top_ipin_4\.mux_l1_in_0__A1
*444 ANTENNA_mux_top_ipin_4\.mux_l1_in_1__A0
*445 ANTENNA_mux_top_ipin_4\.mux_l1_in_1__A1
*446 ANTENNA_mux_top_ipin_4\.mux_l1_in_2__A0
*447 ANTENNA_mux_top_ipin_4\.mux_l1_in_2__A1
*448 ANTENNA_mux_top_ipin_4\.mux_l2_in_1__A0
*449 ANTENNA_mux_top_ipin_4\.mux_l2_in_2__A0
*450 ANTENNA_mux_top_ipin_4\.mux_l2_in_2__A1
*451 ANTENNA_mux_top_ipin_4\.mux_l2_in_3__A1
*452 ANTENNA_mux_top_ipin_5\.mux_l1_in_0__A0
*453 ANTENNA_mux_top_ipin_5\.mux_l1_in_0__A1
*454 ANTENNA_mux_top_ipin_5\.mux_l1_in_1__A0
*455 ANTENNA_mux_top_ipin_5\.mux_l1_in_1__A1
*456 ANTENNA_mux_top_ipin_5\.mux_l1_in_2__A0
*457 ANTENNA_mux_top_ipin_5\.mux_l1_in_2__A1
*458 ANTENNA_mux_top_ipin_5\.mux_l2_in_1__A0
*459 ANTENNA_mux_top_ipin_5\.mux_l2_in_2__A0
*460 ANTENNA_mux_top_ipin_5\.mux_l2_in_2__A1
*461 ANTENNA_mux_top_ipin_5\.mux_l2_in_3__A1
*462 ANTENNA_mux_top_ipin_6\.mux_l1_in_0__A0
*463 ANTENNA_mux_top_ipin_6\.mux_l1_in_0__A1
*464 ANTENNA_mux_top_ipin_6\.mux_l1_in_1__A0
*465 ANTENNA_mux_top_ipin_6\.mux_l1_in_1__A1
*466 ANTENNA_mux_top_ipin_6\.mux_l1_in_2__A0
*467 ANTENNA_mux_top_ipin_6\.mux_l1_in_2__A1
*468 ANTENNA_mux_top_ipin_6\.mux_l2_in_1__A0
*469 ANTENNA_mux_top_ipin_6\.mux_l2_in_2__A0
*470 ANTENNA_mux_top_ipin_6\.mux_l2_in_2__A1
*471 ANTENNA_mux_top_ipin_6\.mux_l2_in_3__A1
*472 ANTENNA_mux_top_ipin_7\.mux_l1_in_0__A0
*473 ANTENNA_mux_top_ipin_7\.mux_l1_in_0__A1
*474 ANTENNA_mux_top_ipin_7\.mux_l1_in_1__A0
*475 ANTENNA_mux_top_ipin_7\.mux_l1_in_1__A1
*476 ANTENNA_mux_top_ipin_7\.mux_l1_in_2__A0
*477 ANTENNA_mux_top_ipin_7\.mux_l1_in_2__A1
*478 ANTENNA_mux_top_ipin_7\.mux_l2_in_1__A0
*479 ANTENNA_mux_top_ipin_7\.mux_l2_in_2__A0
*480 ANTENNA_mux_top_ipin_7\.mux_l2_in_2__A1
*481 ANTENNA_mux_top_ipin_7\.mux_l2_in_3__A1
*482 ANTENNA_mux_top_ipin_8\.mux_l1_in_0__A0
*483 ANTENNA_mux_top_ipin_8\.mux_l1_in_0__A1
*484 ANTENNA_mux_top_ipin_8\.mux_l1_in_1__A0
*485 ANTENNA_mux_top_ipin_8\.mux_l1_in_1__A1
*486 ANTENNA_mux_top_ipin_8\.mux_l1_in_2__A0
*487 ANTENNA_mux_top_ipin_8\.mux_l1_in_2__A1
*488 ANTENNA_mux_top_ipin_8\.mux_l2_in_1__A0
*489 ANTENNA_mux_top_ipin_8\.mux_l2_in_2__A0
*490 ANTENNA_mux_top_ipin_8\.mux_l2_in_2__A1
*491 ANTENNA_mux_top_ipin_8\.mux_l2_in_3__A1
*492 ANTENNA_prog_clk_0_FTB00_A
*493 ANTENNA_prog_clk_0_W_FTB01_A
*494 FILLER_0_100
*495 FILLER_0_105
*496 FILLER_0_111
*497 FILLER_0_113
*498 FILLER_0_12
*499 FILLER_0_131
*500 FILLER_0_139
*501 FILLER_0_141
*502 FILLER_0_153
*503 FILLER_0_158
*504 FILLER_0_166
*505 FILLER_0_169
*506 FILLER_0_177
*507 FILLER_0_186
*508 FILLER_0_24
*509 FILLER_0_29
*510 FILLER_0_3
*511 FILLER_0_41
*512 FILLER_0_53
*513 FILLER_0_57
*514 FILLER_0_65
*515 FILLER_0_69
*516 FILLER_0_74
*517 FILLER_0_82
*518 FILLER_0_91
*519 FILLER_0_95
*520 FILLER_10_101
*521 FILLER_10_118
*522 FILLER_10_135
*523 FILLER_10_139
*524 FILLER_10_141
*525 FILLER_10_158
*526 FILLER_10_170
*527 FILLER_10_177
*528 FILLER_10_189
*529 FILLER_10_20
*530 FILLER_10_23
*531 FILLER_10_27
*532 FILLER_10_29
*533 FILLER_10_5
*534 FILLER_10_53
*535 FILLER_10_61
*536 FILLER_10_79
*537 FILLER_10_83
*538 FILLER_11_102
*539 FILLER_11_110
*540 FILLER_11_145
*541 FILLER_11_166
*542 FILLER_11_169
*543 FILLER_11_177
*544 FILLER_11_184
*545 FILLER_11_3
*546 FILLER_11_33
*547 FILLER_11_55
*548 FILLER_11_73
*549 FILLER_11_85
*550 FILLER_12_114
*551 FILLER_12_134
*552 FILLER_12_141
*553 FILLER_12_155
*554 FILLER_12_167
*555 FILLER_12_175
*556 FILLER_12_182
*557 FILLER_12_186
*558 FILLER_12_27
*559 FILLER_12_3
*560 FILLER_12_63
*561 FILLER_12_67
*562 FILLER_12_85
*563 FILLER_12_97
*564 FILLER_13_109
*565 FILLER_13_11
*566 FILLER_13_113
*567 FILLER_13_133
*568 FILLER_13_145
*569 FILLER_13_153
*570 FILLER_13_156
*571 FILLER_13_169
*572 FILLER_13_177
*573 FILLER_13_21
*574 FILLER_13_3
*575 FILLER_13_33
*576 FILLER_13_52
*577 FILLER_13_57
*578 FILLER_13_65
*579 FILLER_13_97
*580 FILLER_14_102
*581 FILLER_14_110
*582 FILLER_14_128
*583 FILLER_14_141
*584 FILLER_14_153
*585 FILLER_14_165
*586 FILLER_14_179
*587 FILLER_14_186
*588 FILLER_14_22
*589 FILLER_14_25
*590 FILLER_14_29
*591 FILLER_14_3
*592 FILLER_14_53
*593 FILLER_14_75
*594 FILLER_14_83
*595 FILLER_14_85
*596 FILLER_15_111
*597 FILLER_15_156
*598 FILLER_15_164
*599 FILLER_15_186
*600 FILLER_15_3
*601 FILLER_15_34
*602 FILLER_15_57
*603 FILLER_15_61
*604 FILLER_15_9
*605 FILLER_15_94
*606 FILLER_16_110
*607 FILLER_16_114
*608 FILLER_16_131
*609 FILLER_16_139
*610 FILLER_16_15
*611 FILLER_16_159
*612 FILLER_16_181
*613 FILLER_16_25
*614 FILLER_16_29
*615 FILLER_16_3
*616 FILLER_16_53
*617 FILLER_16_65
*618 FILLER_16_69
*619 FILLER_16_83
*620 FILLER_16_98
*621 FILLER_17_103
*622 FILLER_17_111
*623 FILLER_17_113
*624 FILLER_17_119
*625 FILLER_17_133
*626 FILLER_17_145
*627 FILLER_17_169
*628 FILLER_17_174
*629 FILLER_17_186
*630 FILLER_17_19
*631 FILLER_17_29
*632 FILLER_17_3
*633 FILLER_17_40
*634 FILLER_17_44
*635 FILLER_17_59
*636 FILLER_17_69
*637 FILLER_18_104
*638 FILLER_18_115
*639 FILLER_18_13
*640 FILLER_18_136
*641 FILLER_18_150
*642 FILLER_18_156
*643 FILLER_18_168
*644 FILLER_18_176
*645 FILLER_18_185
*646 FILLER_18_189
*647 FILLER_18_3
*648 FILLER_18_45
*649 FILLER_18_53
*650 FILLER_18_83
*651 FILLER_18_85
*652 FILLER_19_103
*653 FILLER_19_111
*654 FILLER_19_113
*655 FILLER_19_127
*656 FILLER_19_150
*657 FILLER_19_162
*658 FILLER_19_169
*659 FILLER_19_181
*660 FILLER_19_189
*661 FILLER_19_19
*662 FILLER_19_23
*663 FILLER_19_3
*664 FILLER_19_37
*665 FILLER_19_49
*666 FILLER_19_53
*667 FILLER_19_60
*668 FILLER_19_65
*669 FILLER_19_77
*670 FILLER_1_12
*671 FILLER_1_126
*672 FILLER_1_166
*673 FILLER_1_181
*674 FILLER_1_27
*675 FILLER_1_3
*676 FILLER_1_45
*677 FILLER_1_54
*678 FILLER_1_84
*679 FILLER_20_130
*680 FILLER_20_136
*681 FILLER_20_139
*682 FILLER_20_141
*683 FILLER_20_15
*684 FILLER_20_153
*685 FILLER_20_165
*686 FILLER_20_177
*687 FILLER_20_189
*688 FILLER_20_27
*689 FILLER_20_29
*690 FILLER_20_3
*691 FILLER_20_41
*692 FILLER_20_73
*693 FILLER_20_81
*694 FILLER_20_85
*695 FILLER_20_99
*696 FILLER_21_101
*697 FILLER_21_107
*698 FILLER_21_113
*699 FILLER_21_118
*700 FILLER_21_128
*701 FILLER_21_142
*702 FILLER_21_15
*703 FILLER_21_154
*704 FILLER_21_166
*705 FILLER_21_169
*706 FILLER_21_181
*707 FILLER_21_189
*708 FILLER_21_27
*709 FILLER_21_3
*710 FILLER_21_39
*711 FILLER_21_51
*712 FILLER_21_73
*713 FILLER_21_88
*714 FILLER_21_94
*715 FILLER_22_109
*716 FILLER_22_113
*717 FILLER_22_125
*718 FILLER_22_137
*719 FILLER_22_141
*720 FILLER_22_15
*721 FILLER_22_153
*722 FILLER_22_165
*723 FILLER_22_169
*724 FILLER_22_181
*725 FILLER_22_189
*726 FILLER_22_27
*727 FILLER_22_29
*728 FILLER_22_3
*729 FILLER_22_41
*730 FILLER_22_53
*731 FILLER_22_57
*732 FILLER_22_69
*733 FILLER_22_81
*734 FILLER_22_85
*735 FILLER_22_97
*736 FILLER_2_100
*737 FILLER_2_109
*738 FILLER_2_121
*739 FILLER_2_125
*740 FILLER_2_128
*741 FILLER_2_133
*742 FILLER_2_137
*743 FILLER_2_154
*744 FILLER_2_158
*745 FILLER_2_174
*746 FILLER_2_186
*747 FILLER_2_20
*748 FILLER_2_29
*749 FILLER_2_3
*750 FILLER_2_41
*751 FILLER_2_45
*752 FILLER_2_52
*753 FILLER_2_64
*754 FILLER_2_90
*755 FILLER_3_111
*756 FILLER_3_115
*757 FILLER_3_121
*758 FILLER_3_135
*759 FILLER_3_143
*760 FILLER_3_163
*761 FILLER_3_167
*762 FILLER_3_169
*763 FILLER_3_177
*764 FILLER_3_185
*765 FILLER_3_189
*766 FILLER_3_24
*767 FILLER_3_3
*768 FILLER_3_36
*769 FILLER_3_48
*770 FILLER_3_59
*771 FILLER_3_71
*772 FILLER_4_119
*773 FILLER_4_133
*774 FILLER_4_138
*775 FILLER_4_141
*776 FILLER_4_147
*777 FILLER_4_169
*778 FILLER_4_177
*779 FILLER_4_184
*780 FILLER_4_23
*781 FILLER_4_29
*782 FILLER_4_41
*783 FILLER_4_46
*784 FILLER_4_69
*785 FILLER_4_73
*786 FILLER_4_76
*787 FILLER_4_94
*788 FILLER_5_106
*789 FILLER_5_126
*790 FILLER_5_167
*791 FILLER_5_175
*792 FILLER_5_185
*793 FILLER_5_189
*794 FILLER_5_25
*795 FILLER_5_3
*796 FILLER_5_55
*797 FILLER_5_57
*798 FILLER_5_85
*799 FILLER_6_109
*800 FILLER_6_121
*801 FILLER_6_138
*802 FILLER_6_141
*803 FILLER_6_156
*804 FILLER_6_179
*805 FILLER_6_3
*806 FILLER_6_33
*807 FILLER_6_64
*808 FILLER_6_78
*809 FILLER_6_94
*810 FILLER_7_100
*811 FILLER_7_113
*812 FILLER_7_133
*813 FILLER_7_166
*814 FILLER_7_169
*815 FILLER_7_173
*816 FILLER_7_181
*817 FILLER_7_186
*818 FILLER_7_3
*819 FILLER_7_39
*820 FILLER_7_75
*821 FILLER_7_83
*822 FILLER_8_105
*823 FILLER_8_139
*824 FILLER_8_141
*825 FILLER_8_156
*826 FILLER_8_179
*827 FILLER_8_183
*828 FILLER_8_186
*829 FILLER_8_27
*830 FILLER_8_35
*831 FILLER_8_52
*832 FILLER_8_64
*833 FILLER_8_81
*834 FILLER_8_85
*835 FILLER_9_104
*836 FILLER_9_113
*837 FILLER_9_135
*838 FILLER_9_159
*839 FILLER_9_165
*840 FILLER_9_55
*841 FILLER_9_57
*842 FILLER_9_77
*843 FILLER_9_85
*844 PHY_0
*845 PHY_1
*846 PHY_10
*847 PHY_11
*848 PHY_12
*849 PHY_13
*850 PHY_14
*851 PHY_15
*852 PHY_16
*853 PHY_17
*854 PHY_18
*855 PHY_19
*856 PHY_2
*857 PHY_20
*858 PHY_21
*859 PHY_22
*860 PHY_23
*861 PHY_24
*862 PHY_25
*863 PHY_26
*864 PHY_27
*865 PHY_28
*866 PHY_29
*867 PHY_3
*868 PHY_30
*869 PHY_31
*870 PHY_32
*871 PHY_33
*872 PHY_34
*873 PHY_35
*874 PHY_36
*875 PHY_37
*876 PHY_38
*877 PHY_39
*878 PHY_4
*879 PHY_40
*880 PHY_41
*881 PHY_42
*882 PHY_43
*883 PHY_44
*884 PHY_45
*885 PHY_5
*886 PHY_6
*887 PHY_7
*888 PHY_8
*889 PHY_9
*890 TAP_100
*891 TAP_101
*892 TAP_102
*893 TAP_103
*894 TAP_104
*895 TAP_105
*896 TAP_106
*897 TAP_107
*898 TAP_108
*899 TAP_109
*900 TAP_110
*901 TAP_111
*902 TAP_112
*903 TAP_113
*904 TAP_114
*905 TAP_115
*906 TAP_116
*907 TAP_117
*908 TAP_118
*909 TAP_119
*910 TAP_120
*911 TAP_46
*912 TAP_47
*913 TAP_48
*914 TAP_49
*915 TAP_50
*916 TAP_51
*917 TAP_52
*918 TAP_53
*919 TAP_54
*920 TAP_55
*921 TAP_56
*922 TAP_57
*923 TAP_58
*924 TAP_59
*925 TAP_60
*926 TAP_61
*927 TAP_62
*928 TAP_63
*929 TAP_64
*930 TAP_65
*931 TAP_66
*932 TAP_67
*933 TAP_68
*934 TAP_69
*935 TAP_70
*936 TAP_71
*937 TAP_72
*938 TAP_73
*939 TAP_74
*940 TAP_75
*941 TAP_76
*942 TAP_77
*943 TAP_78
*944 TAP_79
*945 TAP_80
*946 TAP_81
*947 TAP_82
*948 TAP_83
*949 TAP_84
*950 TAP_85
*951 TAP_86
*952 TAP_87
*953 TAP_88
*954 TAP_89
*955 TAP_90
*956 TAP_91
*957 TAP_92
*958 TAP_93
*959 TAP_94
*960 TAP_95
*961 TAP_96
*962 TAP_97
*963 TAP_98
*964 TAP_99
*965 _09_
*966 _10_
*967 _11_
*968 _12_
*969 _13_
*970 _14_
*971 _15_
*972 _16_
*973 _17_
*974 _18_
*975 _19_
*976 _20_
*977 _21_
*978 _22_
*979 _23_
*980 _24_
*981 _25_
*982 _26_
*983 _27_
*984 _28_
*985 _29_
*986 _30_
*987 _31_
*988 _32_
*989 _33_
*990 _34_
*991 _35_
*992 _36_
*993 _37_
*994 _38_
*995 _39_
*996 _40_
*997 _41_
*998 _42_
*999 _43_
*1000 _44_
*1001 _45_
*1002 _46_
*1003 _47_
*1004 _48_
*1005 _49_
*1006 _50_
*1007 _51_
*1008 _52_
*1009 _53_
*1010 _54_
*1011 _55_
*1012 _56_
*1013 _57_
*1014 _58_
*1015 _59_
*1016 _60_
*1017 _61_
*1018 _62_
*1019 _63_
*1020 _64_
*1021 _65_
*1022 _66_
*1023 _67_
*1024 _68_
*1025 _69_
*1026 _70_
*1027 _71_
*1028 _72_
*1029 _73_
*1030 _74_
*1031 _75_
*1032 _76_
*1033 _77_
*1034 _78_
*1035 _79_
*1036 _80_
*1037 _81_
*1038 _82_
*1039 _83_
*1040 _84_
*1041 _85_
*1042 _86_
*1043 logical_tile_io_mode_io__0\.ltile_phy_iopad_0\.EMBEDDED_IO_HD_0_\.INV_SOC_DIR
*1044 logical_tile_io_mode_io__0\.ltile_phy_iopad_0\.EMBEDDED_IO_HD_0_\.IN_PROTECT_GATE
*1045 logical_tile_io_mode_io__0\.ltile_phy_iopad_0\.EMBEDDED_IO_HD_0_\.ISOL_EN_GATE
*1046 logical_tile_io_mode_io__0\.ltile_phy_iopad_0\.EMBEDDED_IO_HD_0_\.OUT_PROTECT_GATE
*1047 logical_tile_io_mode_io__0\.ltile_phy_iopad_0\.EMBEDDED_IO_HD_sky130_fd_sc_hd__dfxtp_1_mem\.sky130_fd_sc_hd__dfxtp_1_0_
*1048 logical_tile_io_mode_io__1\.ltile_phy_iopad_0\.EMBEDDED_IO_HD_0_\.INV_SOC_DIR
*1049 logical_tile_io_mode_io__1\.ltile_phy_iopad_0\.EMBEDDED_IO_HD_0_\.IN_PROTECT_GATE
*1050 logical_tile_io_mode_io__1\.ltile_phy_iopad_0\.EMBEDDED_IO_HD_0_\.ISOL_EN_GATE
*1051 logical_tile_io_mode_io__1\.ltile_phy_iopad_0\.EMBEDDED_IO_HD_0_\.OUT_PROTECT_GATE
*1052 logical_tile_io_mode_io__1\.ltile_phy_iopad_0\.EMBEDDED_IO_HD_sky130_fd_sc_hd__dfxtp_1_mem\.sky130_fd_sc_hd__dfxtp_1_0_