*SPEF "ieee 1481-1999"
*DESIGN "cbx_1__2_"
*DATE "11:11:11 Fri 11 11, 1111"
*VENDOR "OpenRCX"
*PROGRAM "Parallel Extraction"
*VERSION "1.0"
*DESIGN_FLOW "NAME_SCOPE LOCAL" "PIN_CAP NONE"
*DIVIDER /
*DELIMITER :
*BUS_DELIMITER []
*T_UNIT 1 NS
*C_UNIT 1 PF
*R_UNIT 1 OHM
*L_UNIT 1 HENRY

*NAME_MAP
*1 IO_ISOL_N
*2 SC_IN_BOT
*3 SC_IN_TOP
*4 SC_OUT_BOT
*5 SC_OUT_TOP
*8 bottom_grid_pin_0_
*9 bottom_grid_pin_10_
*10 bottom_grid_pin_11_
*11 bottom_grid_pin_12_
*12 bottom_grid_pin_13_
*13 bottom_grid_pin_14_
*14 bottom_grid_pin_15_
*15 bottom_grid_pin_1_
*16 bottom_grid_pin_2_
*17 bottom_grid_pin_3_
*18 bottom_grid_pin_4_
*19 bottom_grid_pin_5_
*20 bottom_grid_pin_6_
*21 bottom_grid_pin_7_
*22 bottom_grid_pin_8_
*23 bottom_grid_pin_9_
*24 bottom_width_0_height_0__pin_0_
*25 bottom_width_0_height_0__pin_1_lower
*26 bottom_width_0_height_0__pin_1_upper
*27 ccff_head
*28 ccff_tail
*29 chanx_left_in[0]
*30 chanx_left_in[10]
*31 chanx_left_in[11]
*32 chanx_left_in[12]
*33 chanx_left_in[13]
*34 chanx_left_in[14]
*35 chanx_left_in[15]
*36 chanx_left_in[16]
*37 chanx_left_in[17]
*38 chanx_left_in[18]
*39 chanx_left_in[19]
*40 chanx_left_in[1]
*41 chanx_left_in[2]
*42 chanx_left_in[3]
*43 chanx_left_in[4]
*44 chanx_left_in[5]
*45 chanx_left_in[6]
*46 chanx_left_in[7]
*47 chanx_left_in[8]
*48 chanx_left_in[9]
*49 chanx_left_out[0]
*50 chanx_left_out[10]
*51 chanx_left_out[11]
*52 chanx_left_out[12]
*53 chanx_left_out[13]
*54 chanx_left_out[14]
*55 chanx_left_out[15]
*56 chanx_left_out[16]
*57 chanx_left_out[17]
*58 chanx_left_out[18]
*59 chanx_left_out[19]
*60 chanx_left_out[1]
*61 chanx_left_out[2]
*62 chanx_left_out[3]
*63 chanx_left_out[4]
*64 chanx_left_out[5]
*65 chanx_left_out[6]
*66 chanx_left_out[7]
*67 chanx_left_out[8]
*68 chanx_left_out[9]
*69 chanx_right_in[0]
*70 chanx_right_in[10]
*71 chanx_right_in[11]
*72 chanx_right_in[12]
*73 chanx_right_in[13]
*74 chanx_right_in[14]
*75 chanx_right_in[15]
*76 chanx_right_in[16]
*77 chanx_right_in[17]
*78 chanx_right_in[18]
*79 chanx_right_in[19]
*80 chanx_right_in[1]
*81 chanx_right_in[2]
*82 chanx_right_in[3]
*83 chanx_right_in[4]
*84 chanx_right_in[5]
*85 chanx_right_in[6]
*86 chanx_right_in[7]
*87 chanx_right_in[8]
*88 chanx_right_in[9]
*89 chanx_right_out[0]
*90 chanx_right_out[10]
*91 chanx_right_out[11]
*92 chanx_right_out[12]
*93 chanx_right_out[13]
*94 chanx_right_out[14]
*95 chanx_right_out[15]
*96 chanx_right_out[16]
*97 chanx_right_out[17]
*98 chanx_right_out[18]
*99 chanx_right_out[19]
*100 chanx_right_out[1]
*101 chanx_right_out[2]
*102 chanx_right_out[3]
*103 chanx_right_out[4]
*104 chanx_right_out[5]
*105 chanx_right_out[6]
*106 chanx_right_out[7]
*107 chanx_right_out[8]
*108 chanx_right_out[9]
*109 gfpga_pad_EMBEDDED_IO_HD_SOC_DIR
*110 gfpga_pad_EMBEDDED_IO_HD_SOC_IN
*111 gfpga_pad_EMBEDDED_IO_HD_SOC_OUT
*112 prog_clk_0_S_in
*113 prog_clk_0_W_out
*114 top_grid_pin_0_
*115 _00_
*116 _01_
*117 _02_
*118 _03_
*119 _04_
*120 _05_
*121 _06_
*122 _07_
*123 _08_
*124 _09_
*125 _10_
*126 _11_
*127 _12_
*128 _13_
*129 _14_
*130 _15_
*131 _16_
*132 logical_tile_io_mode_io__0\.ccff_head
*133 logical_tile_io_mode_io__0\.ltile_phy_iopad_0\.EMBEDDED_IO_HD_0_\.SOC_DIR_N
*134 logical_tile_io_mode_io__0\.ltile_phy_iopad_0\.EMBEDDED_IO_HD_sky130_fd_sc_hd__dfxtp_1_mem\.prog_clk
*135 mem_bottom_ipin_0\.ccff_tail
*136 mem_bottom_ipin_0\.mem_out\[0\]
*137 mem_bottom_ipin_0\.mem_out\[1\]
*138 mem_bottom_ipin_0\.mem_out\[2\]
*139 mem_top_ipin_0\.ccff_tail
*140 mem_top_ipin_0\.mem_out\[0\]
*141 mem_top_ipin_0\.mem_out\[1\]
*142 mem_top_ipin_0\.mem_out\[2\]
*143 mem_top_ipin_1\.ccff_tail
*144 mem_top_ipin_1\.mem_out\[0\]
*145 mem_top_ipin_1\.mem_out\[1\]
*146 mem_top_ipin_1\.mem_out\[2\]
*147 mem_top_ipin_10\.ccff_head
*148 mem_top_ipin_10\.ccff_tail
*149 mem_top_ipin_10\.mem_out\[0\]
*150 mem_top_ipin_10\.mem_out\[1\]
*151 mem_top_ipin_10\.mem_out\[2\]
*152 mem_top_ipin_11\.ccff_tail
*153 mem_top_ipin_11\.mem_out\[0\]
*154 mem_top_ipin_11\.mem_out\[1\]
*155 mem_top_ipin_11\.mem_out\[2\]
*156 mem_top_ipin_12\.ccff_tail
*157 mem_top_ipin_12\.mem_out\[0\]
*158 mem_top_ipin_12\.mem_out\[1\]
*159 mem_top_ipin_12\.mem_out\[2\]
*160 mem_top_ipin_13\.ccff_tail
*161 mem_top_ipin_13\.mem_out\[0\]
*162 mem_top_ipin_13\.mem_out\[1\]
*163 mem_top_ipin_13\.mem_out\[2\]
*164 mem_top_ipin_14\.ccff_tail
*165 mem_top_ipin_14\.mem_out\[0\]
*166 mem_top_ipin_14\.mem_out\[1\]
*167 mem_top_ipin_14\.mem_out\[2\]
*168 mem_top_ipin_15\.mem_out\[0\]
*169 mem_top_ipin_15\.mem_out\[1\]
*170 mem_top_ipin_15\.mem_out\[2\]
*171 mem_top_ipin_2\.ccff_tail
*172 mem_top_ipin_2\.mem_out\[0\]
*173 mem_top_ipin_2\.mem_out\[1\]
*174 mem_top_ipin_2\.mem_out\[2\]
*175 mem_top_ipin_3\.ccff_tail
*176 mem_top_ipin_3\.mem_out\[0\]
*177 mem_top_ipin_3\.mem_out\[1\]
*178 mem_top_ipin_3\.mem_out\[2\]
*179 mem_top_ipin_4\.ccff_tail
*180 mem_top_ipin_4\.mem_out\[0\]
*181 mem_top_ipin_4\.mem_out\[1\]
*182 mem_top_ipin_4\.mem_out\[2\]
*183 mem_top_ipin_5\.ccff_tail
*184 mem_top_ipin_5\.mem_out\[0\]
*185 mem_top_ipin_5\.mem_out\[1\]
*186 mem_top_ipin_5\.mem_out\[2\]
*187 mem_top_ipin_6\.ccff_tail
*188 mem_top_ipin_6\.mem_out\[0\]
*189 mem_top_ipin_6\.mem_out\[1\]
*190 mem_top_ipin_6\.mem_out\[2\]
*191 mem_top_ipin_7\.ccff_tail
*192 mem_top_ipin_7\.mem_out\[0\]
*193 mem_top_ipin_7\.mem_out\[1\]
*194 mem_top_ipin_7\.mem_out\[2\]
*195 mem_top_ipin_8\.ccff_tail
*196 mem_top_ipin_8\.mem_out\[0\]
*197 mem_top_ipin_8\.mem_out\[1\]
*198 mem_top_ipin_8\.mem_out\[2\]
*199 mem_top_ipin_9\.mem_out\[0\]
*200 mem_top_ipin_9\.mem_out\[1\]
*201 mem_top_ipin_9\.mem_out\[2\]
*202 mux_bottom_ipin_0\.sky130_fd_sc_hd__mux2_1_0_X
*203 mux_bottom_ipin_0\.sky130_fd_sc_hd__mux2_1_1_X
*204 mux_bottom_ipin_0\.sky130_fd_sc_hd__mux2_1_2_X
*205 mux_bottom_ipin_0\.sky130_fd_sc_hd__mux2_1_3_X
*206 mux_bottom_ipin_0\.sky130_fd_sc_hd__mux2_1_4_X
*207 mux_bottom_ipin_0\.sky130_fd_sc_hd__mux2_1_5_X
*208 mux_bottom_ipin_0\.sky130_fd_sc_hd__mux2_1_6_X
*209 mux_bottom_ipin_0\.sky130_fd_sc_hd__mux2_1_7_X
*210 mux_bottom_ipin_0\.sky130_fd_sc_hd__mux2_1_8_X
*211 mux_bottom_ipin_0\.sky130_fd_sc_hd__mux2_1_9_X
*212 mux_top_ipin_0\.sky130_fd_sc_hd__mux2_1_0_X
*213 mux_top_ipin_0\.sky130_fd_sc_hd__mux2_1_1_X
*214 mux_top_ipin_0\.sky130_fd_sc_hd__mux2_1_2_X
*215 mux_top_ipin_0\.sky130_fd_sc_hd__mux2_1_3_X
*216 mux_top_ipin_0\.sky130_fd_sc_hd__mux2_1_4_X
*217 mux_top_ipin_0\.sky130_fd_sc_hd__mux2_1_5_X
*218 mux_top_ipin_0\.sky130_fd_sc_hd__mux2_1_6_X
*219 mux_top_ipin_0\.sky130_fd_sc_hd__mux2_1_7_X
*220 mux_top_ipin_0\.sky130_fd_sc_hd__mux2_1_8_X
*221 mux_top_ipin_0\.sky130_fd_sc_hd__mux2_1_9_X
*222 mux_top_ipin_1\.sky130_fd_sc_hd__mux2_1_0_X
*223 mux_top_ipin_1\.sky130_fd_sc_hd__mux2_1_1_X
*224 mux_top_ipin_1\.sky130_fd_sc_hd__mux2_1_2_X
*225 mux_top_ipin_1\.sky130_fd_sc_hd__mux2_1_3_X
*226 mux_top_ipin_1\.sky130_fd_sc_hd__mux2_1_4_X
*227 mux_top_ipin_1\.sky130_fd_sc_hd__mux2_1_5_X
*228 mux_top_ipin_1\.sky130_fd_sc_hd__mux2_1_6_X
*229 mux_top_ipin_1\.sky130_fd_sc_hd__mux2_1_7_X
*230 mux_top_ipin_10\.sky130_fd_sc_hd__mux2_1_0_X
*231 mux_top_ipin_10\.sky130_fd_sc_hd__mux2_1_1_X
*232 mux_top_ipin_10\.sky130_fd_sc_hd__mux2_1_2_X
*233 mux_top_ipin_10\.sky130_fd_sc_hd__mux2_1_3_X
*234 mux_top_ipin_10\.sky130_fd_sc_hd__mux2_1_4_X
*235 mux_top_ipin_10\.sky130_fd_sc_hd__mux2_1_5_X
*236 mux_top_ipin_10\.sky130_fd_sc_hd__mux2_1_6_X
*237 mux_top_ipin_10\.sky130_fd_sc_hd__mux2_1_7_X
*238 mux_top_ipin_11\.sky130_fd_sc_hd__mux2_1_0_X
*239 mux_top_ipin_11\.sky130_fd_sc_hd__mux2_1_1_X
*240 mux_top_ipin_11\.sky130_fd_sc_hd__mux2_1_2_X
*241 mux_top_ipin_11\.sky130_fd_sc_hd__mux2_1_3_X
*242 mux_top_ipin_11\.sky130_fd_sc_hd__mux2_1_4_X
*243 mux_top_ipin_11\.sky130_fd_sc_hd__mux2_1_5_X
*244 mux_top_ipin_11\.sky130_fd_sc_hd__mux2_1_6_X
*245 mux_top_ipin_11\.sky130_fd_sc_hd__mux2_1_7_X
*246 mux_top_ipin_11\.sky130_fd_sc_hd__mux2_1_8_X
*247 mux_top_ipin_11\.sky130_fd_sc_hd__mux2_1_9_X
*248 mux_top_ipin_12\.sky130_fd_sc_hd__mux2_1_0_X
*249 mux_top_ipin_12\.sky130_fd_sc_hd__mux2_1_1_X
*250 mux_top_ipin_12\.sky130_fd_sc_hd__mux2_1_2_X
*251 mux_top_ipin_12\.sky130_fd_sc_hd__mux2_1_3_X
*252 mux_top_ipin_12\.sky130_fd_sc_hd__mux2_1_4_X
*253 mux_top_ipin_12\.sky130_fd_sc_hd__mux2_1_5_X
*254 mux_top_ipin_12\.sky130_fd_sc_hd__mux2_1_6_X
*255 mux_top_ipin_12\.sky130_fd_sc_hd__mux2_1_7_X
*256 mux_top_ipin_12\.sky130_fd_sc_hd__mux2_1_8_X
*257 mux_top_ipin_12\.sky130_fd_sc_hd__mux2_1_9_X
*258 mux_top_ipin_13\.sky130_fd_sc_hd__mux2_1_0_X
*259 mux_top_ipin_13\.sky130_fd_sc_hd__mux2_1_1_X
*260 mux_top_ipin_13\.sky130_fd_sc_hd__mux2_1_2_X
*261 mux_top_ipin_13\.sky130_fd_sc_hd__mux2_1_3_X
*262 mux_top_ipin_13\.sky130_fd_sc_hd__mux2_1_4_X
*263 mux_top_ipin_13\.sky130_fd_sc_hd__mux2_1_5_X
*264 mux_top_ipin_13\.sky130_fd_sc_hd__mux2_1_6_X
*265 mux_top_ipin_13\.sky130_fd_sc_hd__mux2_1_7_X
*266 mux_top_ipin_14\.sky130_fd_sc_hd__mux2_1_0_X
*267 mux_top_ipin_14\.sky130_fd_sc_hd__mux2_1_1_X
*268 mux_top_ipin_14\.sky130_fd_sc_hd__mux2_1_2_X
*269 mux_top_ipin_14\.sky130_fd_sc_hd__mux2_1_3_X
*270 mux_top_ipin_14\.sky130_fd_sc_hd__mux2_1_4_X
*271 mux_top_ipin_14\.sky130_fd_sc_hd__mux2_1_5_X
*272 mux_top_ipin_14\.sky130_fd_sc_hd__mux2_1_6_X
*273 mux_top_ipin_14\.sky130_fd_sc_hd__mux2_1_7_X
*274 mux_top_ipin_15\.sky130_fd_sc_hd__mux2_1_0_X
*275 mux_top_ipin_15\.sky130_fd_sc_hd__mux2_1_1_X
*276 mux_top_ipin_15\.sky130_fd_sc_hd__mux2_1_2_X
*277 mux_top_ipin_15\.sky130_fd_sc_hd__mux2_1_3_X
*278 mux_top_ipin_15\.sky130_fd_sc_hd__mux2_1_4_X
*279 mux_top_ipin_15\.sky130_fd_sc_hd__mux2_1_5_X
*280 mux_top_ipin_15\.sky130_fd_sc_hd__mux2_1_6_X
*281 mux_top_ipin_15\.sky130_fd_sc_hd__mux2_1_7_X
*282 mux_top_ipin_15\.sky130_fd_sc_hd__mux2_1_8_X
*283 mux_top_ipin_15\.sky130_fd_sc_hd__mux2_1_9_X
*284 mux_top_ipin_2\.sky130_fd_sc_hd__mux2_1_0_X
*285 mux_top_ipin_2\.sky130_fd_sc_hd__mux2_1_1_X
*286 mux_top_ipin_2\.sky130_fd_sc_hd__mux2_1_2_X
*287 mux_top_ipin_2\.sky130_fd_sc_hd__mux2_1_3_X
*288 mux_top_ipin_2\.sky130_fd_sc_hd__mux2_1_4_X
*289 mux_top_ipin_2\.sky130_fd_sc_hd__mux2_1_5_X
*290 mux_top_ipin_2\.sky130_fd_sc_hd__mux2_1_6_X
*291 mux_top_ipin_2\.sky130_fd_sc_hd__mux2_1_7_X
*292 mux_top_ipin_3\.sky130_fd_sc_hd__mux2_1_0_X
*293 mux_top_ipin_3\.sky130_fd_sc_hd__mux2_1_1_X
*294 mux_top_ipin_3\.sky130_fd_sc_hd__mux2_1_2_X
*295 mux_top_ipin_3\.sky130_fd_sc_hd__mux2_1_3_X
*296 mux_top_ipin_3\.sky130_fd_sc_hd__mux2_1_4_X
*297 mux_top_ipin_3\.sky130_fd_sc_hd__mux2_1_5_X
*298 mux_top_ipin_3\.sky130_fd_sc_hd__mux2_1_6_X
*299 mux_top_ipin_3\.sky130_fd_sc_hd__mux2_1_7_X
*300 mux_top_ipin_3\.sky130_fd_sc_hd__mux2_1_8_X
*301 mux_top_ipin_3\.sky130_fd_sc_hd__mux2_1_9_X
*302 mux_top_ipin_4\.sky130_fd_sc_hd__mux2_1_0_X
*303 mux_top_ipin_4\.sky130_fd_sc_hd__mux2_1_1_X
*304 mux_top_ipin_4\.sky130_fd_sc_hd__mux2_1_2_X
*305 mux_top_ipin_4\.sky130_fd_sc_hd__mux2_1_3_X
*306 mux_top_ipin_4\.sky130_fd_sc_hd__mux2_1_4_X
*307 mux_top_ipin_4\.sky130_fd_sc_hd__mux2_1_5_X
*308 mux_top_ipin_4\.sky130_fd_sc_hd__mux2_1_6_X
*309 mux_top_ipin_4\.sky130_fd_sc_hd__mux2_1_7_X
*310 mux_top_ipin_4\.sky130_fd_sc_hd__mux2_1_8_X
*311 mux_top_ipin_4\.sky130_fd_sc_hd__mux2_1_9_X
*312 mux_top_ipin_5\.sky130_fd_sc_hd__mux2_1_0_X
*313 mux_top_ipin_5\.sky130_fd_sc_hd__mux2_1_1_X
*314 mux_top_ipin_5\.sky130_fd_sc_hd__mux2_1_2_X
*315 mux_top_ipin_5\.sky130_fd_sc_hd__mux2_1_3_X
*316 mux_top_ipin_5\.sky130_fd_sc_hd__mux2_1_4_X
*317 mux_top_ipin_5\.sky130_fd_sc_hd__mux2_1_5_X
*318 mux_top_ipin_5\.sky130_fd_sc_hd__mux2_1_6_X
*319 mux_top_ipin_5\.sky130_fd_sc_hd__mux2_1_7_X
*320 mux_top_ipin_6\.sky130_fd_sc_hd__mux2_1_0_X
*321 mux_top_ipin_6\.sky130_fd_sc_hd__mux2_1_1_X
*322 mux_top_ipin_6\.sky130_fd_sc_hd__mux2_1_2_X
*323 mux_top_ipin_6\.sky130_fd_sc_hd__mux2_1_3_X
*324 mux_top_ipin_6\.sky130_fd_sc_hd__mux2_1_4_X
*325 mux_top_ipin_6\.sky130_fd_sc_hd__mux2_1_5_X
*326 mux_top_ipin_6\.sky130_fd_sc_hd__mux2_1_6_X
*327 mux_top_ipin_6\.sky130_fd_sc_hd__mux2_1_7_X
*328 mux_top_ipin_7\.sky130_fd_sc_hd__mux2_1_0_X
*329 mux_top_ipin_7\.sky130_fd_sc_hd__mux2_1_1_X
*330 mux_top_ipin_7\.sky130_fd_sc_hd__mux2_1_2_X
*331 mux_top_ipin_7\.sky130_fd_sc_hd__mux2_1_3_X
*332 mux_top_ipin_7\.sky130_fd_sc_hd__mux2_1_4_X
*333 mux_top_ipin_7\.sky130_fd_sc_hd__mux2_1_5_X
*334 mux_top_ipin_7\.sky130_fd_sc_hd__mux2_1_6_X
*335 mux_top_ipin_7\.sky130_fd_sc_hd__mux2_1_7_X
*336 mux_top_ipin_7\.sky130_fd_sc_hd__mux2_1_8_X
*337 mux_top_ipin_7\.sky130_fd_sc_hd__mux2_1_9_X
*338 mux_top_ipin_8\.sky130_fd_sc_hd__mux2_1_0_X
*339 mux_top_ipin_8\.sky130_fd_sc_hd__mux2_1_1_X
*340 mux_top_ipin_8\.sky130_fd_sc_hd__mux2_1_2_X
*341 mux_top_ipin_8\.sky130_fd_sc_hd__mux2_1_3_X
*342 mux_top_ipin_8\.sky130_fd_sc_hd__mux2_1_4_X
*343 mux_top_ipin_8\.sky130_fd_sc_hd__mux2_1_5_X
*344 mux_top_ipin_8\.sky130_fd_sc_hd__mux2_1_6_X
*345 mux_top_ipin_8\.sky130_fd_sc_hd__mux2_1_7_X
*346 mux_top_ipin_8\.sky130_fd_sc_hd__mux2_1_8_X
*347 mux_top_ipin_8\.sky130_fd_sc_hd__mux2_1_9_X
*348 mux_top_ipin_9\.sky130_fd_sc_hd__mux2_1_0_X
*349 mux_top_ipin_9\.sky130_fd_sc_hd__mux2_1_1_X
*350 mux_top_ipin_9\.sky130_fd_sc_hd__mux2_1_2_X
*351 mux_top_ipin_9\.sky130_fd_sc_hd__mux2_1_3_X
*352 mux_top_ipin_9\.sky130_fd_sc_hd__mux2_1_4_X
*353 mux_top_ipin_9\.sky130_fd_sc_hd__mux2_1_5_X
*354 mux_top_ipin_9\.sky130_fd_sc_hd__mux2_1_6_X
*355 mux_top_ipin_9\.sky130_fd_sc_hd__mux2_1_7_X
*356 ANTENNA__34__A
*357 ANTENNA__35__A
*358 ANTENNA__36__A
*359 ANTENNA__37__A
*360 ANTENNA__38__A
*361 ANTENNA__39__A
*362 ANTENNA__40__A
*363 ANTENNA__41__A
*364 ANTENNA__42__A
*365 ANTENNA__43__A
*366 ANTENNA__44__A
*367 ANTENNA__45__A
*368 ANTENNA__46__A
*369 ANTENNA__47__A
*370 ANTENNA__48__A
*371 ANTENNA__49__A
*372 ANTENNA__50__A
*373 ANTENNA__51__A
*374 ANTENNA__52__A
*375 ANTENNA__53__A
*376 ANTENNA__54__A
*377 ANTENNA__55__A
*378 ANTENNA__56__A
*379 ANTENNA__57__A
*380 ANTENNA__58__A
*381 ANTENNA__59__A
*382 ANTENNA__60__A
*383 ANTENNA__61__A
*384 ANTENNA__62__A
*385 ANTENNA__63__A
*386 ANTENNA__64__A
*387 ANTENNA__65__A
*388 ANTENNA__66__A
*389 ANTENNA__67__A
*390 ANTENNA__68__A
*391 ANTENNA__69__A
*392 ANTENNA__70__A
*393 ANTENNA__71__A
*394 ANTENNA__72__A
*395 ANTENNA__73__A
*396 ANTENNA__74__A
*397 ANTENNA__75__A
*398 ANTENNA__76__A
*399 ANTENNA_logical_tile_io_mode_io__0\.ltile_phy_iopad_0\.EMBEDDED_IO_HD_0_\.IN_PROTECT_GATE_A
*400 ANTENNA_logical_tile_io_mode_io__0\.ltile_phy_iopad_0\.EMBEDDED_IO_HD_0_\.ISOL_EN_GATE_B_N
*401 ANTENNA_logical_tile_io_mode_io__0\.ltile_phy_iopad_0\.EMBEDDED_IO_HD_0_\.OUT_PROTECT_GATE_A
*402 ANTENNA_logical_tile_io_mode_io__0\.ltile_phy_iopad_0\.EMBEDDED_IO_HD_sky130_fd_sc_hd__dfxtp_1_mem\.sky130_fd_sc_hd__dfxtp_1_0__CLK
*403 ANTENNA_mem_bottom_ipin_0\.sky130_fd_sc_hd__dfxtp_1_0__CLK
*404 ANTENNA_mem_bottom_ipin_0\.sky130_fd_sc_hd__dfxtp_1_0__D
*405 ANTENNA_mem_bottom_ipin_0\.sky130_fd_sc_hd__dfxtp_1_1__CLK
*406 ANTENNA_mem_bottom_ipin_0\.sky130_fd_sc_hd__dfxtp_1_2__CLK
*407 ANTENNA_mem_bottom_ipin_0\.sky130_fd_sc_hd__dfxtp_1_3__CLK
*408 ANTENNA_mem_top_ipin_0\.sky130_fd_sc_hd__dfxtp_1_0__CLK
*409 ANTENNA_mem_top_ipin_0\.sky130_fd_sc_hd__dfxtp_1_1__CLK
*410 ANTENNA_mem_top_ipin_0\.sky130_fd_sc_hd__dfxtp_1_2__CLK
*411 ANTENNA_mem_top_ipin_0\.sky130_fd_sc_hd__dfxtp_1_3__CLK
*412 ANTENNA_mem_top_ipin_1\.sky130_fd_sc_hd__dfxtp_1_0__CLK
*413 ANTENNA_mem_top_ipin_1\.sky130_fd_sc_hd__dfxtp_1_0__D
*414 ANTENNA_mem_top_ipin_1\.sky130_fd_sc_hd__dfxtp_1_1__CLK
*415 ANTENNA_mem_top_ipin_1\.sky130_fd_sc_hd__dfxtp_1_2__CLK
*416 ANTENNA_mem_top_ipin_1\.sky130_fd_sc_hd__dfxtp_1_3__CLK
*417 ANTENNA_mem_top_ipin_10\.sky130_fd_sc_hd__dfxtp_1_0__CLK
*418 ANTENNA_mem_top_ipin_10\.sky130_fd_sc_hd__dfxtp_1_1__CLK
*419 ANTENNA_mem_top_ipin_10\.sky130_fd_sc_hd__dfxtp_1_2__CLK
*420 ANTENNA_mem_top_ipin_10\.sky130_fd_sc_hd__dfxtp_1_3__CLK
*421 ANTENNA_mem_top_ipin_11\.sky130_fd_sc_hd__dfxtp_1_0__CLK
*422 ANTENNA_mem_top_ipin_11\.sky130_fd_sc_hd__dfxtp_1_1__CLK
*423 ANTENNA_mem_top_ipin_11\.sky130_fd_sc_hd__dfxtp_1_2__CLK
*424 ANTENNA_mem_top_ipin_11\.sky130_fd_sc_hd__dfxtp_1_3__CLK
*425 ANTENNA_mem_top_ipin_12\.sky130_fd_sc_hd__dfxtp_1_0__CLK
*426 ANTENNA_mem_top_ipin_12\.sky130_fd_sc_hd__dfxtp_1_1__CLK
*427 ANTENNA_mem_top_ipin_12\.sky130_fd_sc_hd__dfxtp_1_2__CLK
*428 ANTENNA_mem_top_ipin_12\.sky130_fd_sc_hd__dfxtp_1_3__CLK
*429 ANTENNA_mem_top_ipin_13\.sky130_fd_sc_hd__dfxtp_1_0__CLK
*430 ANTENNA_mem_top_ipin_13\.sky130_fd_sc_hd__dfxtp_1_1__CLK
*431 ANTENNA_mem_top_ipin_13\.sky130_fd_sc_hd__dfxtp_1_2__CLK
*432 ANTENNA_mem_top_ipin_13\.sky130_fd_sc_hd__dfxtp_1_3__CLK
*433 ANTENNA_mem_top_ipin_14\.sky130_fd_sc_hd__dfxtp_1_0__CLK
*434 ANTENNA_mem_top_ipin_14\.sky130_fd_sc_hd__dfxtp_1_1__CLK
*435 ANTENNA_mem_top_ipin_14\.sky130_fd_sc_hd__dfxtp_1_2__CLK
*436 ANTENNA_mem_top_ipin_14\.sky130_fd_sc_hd__dfxtp_1_3__CLK
*437 ANTENNA_mem_top_ipin_15\.sky130_fd_sc_hd__dfxtp_1_0__CLK
*438 ANTENNA_mem_top_ipin_15\.sky130_fd_sc_hd__dfxtp_1_1__CLK
*439 ANTENNA_mem_top_ipin_15\.sky130_fd_sc_hd__dfxtp_1_2__CLK
*440 ANTENNA_mem_top_ipin_15\.sky130_fd_sc_hd__dfxtp_1_3__CLK
*441 ANTENNA_mem_top_ipin_2\.sky130_fd_sc_hd__dfxtp_1_0__CLK
*442 ANTENNA_mem_top_ipin_2\.sky130_fd_sc_hd__dfxtp_1_1__CLK
*443 ANTENNA_mem_top_ipin_2\.sky130_fd_sc_hd__dfxtp_1_2__CLK
*444 ANTENNA_mem_top_ipin_2\.sky130_fd_sc_hd__dfxtp_1_3__CLK
*445 ANTENNA_mem_top_ipin_3\.sky130_fd_sc_hd__dfxtp_1_0__CLK
*446 ANTENNA_mem_top_ipin_3\.sky130_fd_sc_hd__dfxtp_1_1__CLK
*447 ANTENNA_mem_top_ipin_3\.sky130_fd_sc_hd__dfxtp_1_2__CLK
*448 ANTENNA_mem_top_ipin_3\.sky130_fd_sc_hd__dfxtp_1_2__D
*449 ANTENNA_mem_top_ipin_3\.sky130_fd_sc_hd__dfxtp_1_3__CLK
*450 ANTENNA_mem_top_ipin_3\.sky130_fd_sc_hd__dfxtp_1_3__D
*451 ANTENNA_mem_top_ipin_4\.sky130_fd_sc_hd__dfxtp_1_0__CLK
*452 ANTENNA_mem_top_ipin_4\.sky130_fd_sc_hd__dfxtp_1_1__CLK
*453 ANTENNA_mem_top_ipin_4\.sky130_fd_sc_hd__dfxtp_1_2__CLK
*454 ANTENNA_mem_top_ipin_4\.sky130_fd_sc_hd__dfxtp_1_3__CLK
*455 ANTENNA_mem_top_ipin_5\.sky130_fd_sc_hd__dfxtp_1_0__CLK
*456 ANTENNA_mem_top_ipin_5\.sky130_fd_sc_hd__dfxtp_1_1__CLK
*457 ANTENNA_mem_top_ipin_5\.sky130_fd_sc_hd__dfxtp_1_2__CLK
*458 ANTENNA_mem_top_ipin_5\.sky130_fd_sc_hd__dfxtp_1_3__CLK
*459 ANTENNA_mem_top_ipin_6\.sky130_fd_sc_hd__dfxtp_1_0__CLK
*460 ANTENNA_mem_top_ipin_6\.sky130_fd_sc_hd__dfxtp_1_1__CLK
*461 ANTENNA_mem_top_ipin_6\.sky130_fd_sc_hd__dfxtp_1_2__CLK
*462 ANTENNA_mem_top_ipin_6\.sky130_fd_sc_hd__dfxtp_1_3__CLK
*463 ANTENNA_mem_top_ipin_7\.sky130_fd_sc_hd__dfxtp_1_0__CLK
*464 ANTENNA_mem_top_ipin_7\.sky130_fd_sc_hd__dfxtp_1_1__CLK
*465 ANTENNA_mem_top_ipin_7\.sky130_fd_sc_hd__dfxtp_1_2__CLK
*466 ANTENNA_mem_top_ipin_7\.sky130_fd_sc_hd__dfxtp_1_3__CLK
*467 ANTENNA_mem_top_ipin_8\.sky130_fd_sc_hd__dfxtp_1_0__CLK
*468 ANTENNA_mem_top_ipin_8\.sky130_fd_sc_hd__dfxtp_1_1__CLK
*469 ANTENNA_mem_top_ipin_8\.sky130_fd_sc_hd__dfxtp_1_2__CLK
*470 ANTENNA_mem_top_ipin_8\.sky130_fd_sc_hd__dfxtp_1_3__CLK
*471 ANTENNA_mem_top_ipin_9\.sky130_fd_sc_hd__dfxtp_1_0__CLK
*472 ANTENNA_mem_top_ipin_9\.sky130_fd_sc_hd__dfxtp_1_1__CLK
*473 ANTENNA_mem_top_ipin_9\.sky130_fd_sc_hd__dfxtp_1_2__CLK
*474 ANTENNA_mem_top_ipin_9\.sky130_fd_sc_hd__dfxtp_1_3__CLK
*475 ANTENNA_mux_bottom_ipin_0\.mux_l1_in_0__A0
*476 ANTENNA_mux_bottom_ipin_0\.mux_l1_in_0__A1
*477 ANTENNA_mux_bottom_ipin_0\.mux_l1_in_1__A0
*478 ANTENNA_mux_bottom_ipin_0\.mux_l1_in_1__A1
*479 ANTENNA_mux_bottom_ipin_0\.mux_l1_in_2__A0
*480 ANTENNA_mux_bottom_ipin_0\.mux_l1_in_2__A1
*481 ANTENNA_mux_bottom_ipin_0\.mux_l2_in_1__A0
*482 ANTENNA_mux_bottom_ipin_0\.mux_l2_in_2__A0
*483 ANTENNA_mux_bottom_ipin_0\.mux_l2_in_2__A1
*484 ANTENNA_mux_bottom_ipin_0\.mux_l2_in_3__A1
*485 ANTENNA_mux_top_ipin_0\.mux_l1_in_0__A0
*486 ANTENNA_mux_top_ipin_0\.mux_l1_in_0__A1
*487 ANTENNA_mux_top_ipin_0\.mux_l1_in_1__A0
*488 ANTENNA_mux_top_ipin_0\.mux_l1_in_1__A1
*489 ANTENNA_mux_top_ipin_0\.mux_l1_in_2__A0
*490 ANTENNA_mux_top_ipin_0\.mux_l1_in_2__A1
*491 ANTENNA_mux_top_ipin_0\.mux_l2_in_1__A0
*492 ANTENNA_mux_top_ipin_0\.mux_l2_in_2__A0
*493 ANTENNA_mux_top_ipin_0\.mux_l2_in_2__A1
*494 ANTENNA_mux_top_ipin_0\.mux_l2_in_3__A1
*495 ANTENNA_mux_top_ipin_0\.mux_l4_in_0__S
*496 ANTENNA_mux_top_ipin_1\.mux_l1_in_0__A0
*497 ANTENNA_mux_top_ipin_1\.mux_l1_in_0__A1
*498 ANTENNA_mux_top_ipin_1\.mux_l2_in_0__A0
*499 ANTENNA_mux_top_ipin_1\.mux_l2_in_1__A0
*500 ANTENNA_mux_top_ipin_1\.mux_l2_in_1__A1
*501 ANTENNA_mux_top_ipin_1\.mux_l2_in_2__A0
*502 ANTENNA_mux_top_ipin_1\.mux_l2_in_2__A1
*503 ANTENNA_mux_top_ipin_1\.mux_l2_in_3__A1
*504 ANTENNA_mux_top_ipin_10\.mux_l1_in_0__A0
*505 ANTENNA_mux_top_ipin_10\.mux_l1_in_0__A1
*506 ANTENNA_mux_top_ipin_10\.mux_l2_in_0__A0
*507 ANTENNA_mux_top_ipin_10\.mux_l2_in_1__A0
*508 ANTENNA_mux_top_ipin_10\.mux_l2_in_1__A1
*509 ANTENNA_mux_top_ipin_10\.mux_l2_in_2__A0
*510 ANTENNA_mux_top_ipin_10\.mux_l2_in_2__A1
*511 ANTENNA_mux_top_ipin_10\.mux_l2_in_3__A1
*512 ANTENNA_mux_top_ipin_11\.mux_l1_in_0__A0
*513 ANTENNA_mux_top_ipin_11\.mux_l1_in_0__A1
*514 ANTENNA_mux_top_ipin_11\.mux_l1_in_1__A0
*515 ANTENNA_mux_top_ipin_11\.mux_l1_in_1__A1
*516 ANTENNA_mux_top_ipin_11\.mux_l1_in_2__A0
*517 ANTENNA_mux_top_ipin_11\.mux_l1_in_2__A1
*518 ANTENNA_mux_top_ipin_11\.mux_l2_in_1__A0
*519 ANTENNA_mux_top_ipin_11\.mux_l2_in_2__A0
*520 ANTENNA_mux_top_ipin_11\.mux_l2_in_2__A1
*521 ANTENNA_mux_top_ipin_11\.mux_l2_in_3__A1
*522 ANTENNA_mux_top_ipin_12\.mux_l1_in_0__A0
*523 ANTENNA_mux_top_ipin_12\.mux_l1_in_0__A1
*524 ANTENNA_mux_top_ipin_12\.mux_l1_in_1__A0
*525 ANTENNA_mux_top_ipin_12\.mux_l1_in_1__A1
*526 ANTENNA_mux_top_ipin_12\.mux_l1_in_2__A0
*527 ANTENNA_mux_top_ipin_12\.mux_l1_in_2__A1
*528 ANTENNA_mux_top_ipin_12\.mux_l2_in_1__A0
*529 ANTENNA_mux_top_ipin_12\.mux_l2_in_2__A0
*530 ANTENNA_mux_top_ipin_12\.mux_l2_in_2__A1
*531 ANTENNA_mux_top_ipin_12\.mux_l2_in_3__A1
*532 ANTENNA_mux_top_ipin_13\.mux_l1_in_0__A0
*533 ANTENNA_mux_top_ipin_13\.mux_l1_in_0__A1
*534 ANTENNA_mux_top_ipin_13\.mux_l2_in_0__A0
*535 ANTENNA_mux_top_ipin_13\.mux_l2_in_1__A0
*536 ANTENNA_mux_top_ipin_13\.mux_l2_in_1__A1
*537 ANTENNA_mux_top_ipin_13\.mux_l2_in_2__A0
*538 ANTENNA_mux_top_ipin_13\.mux_l2_in_2__A1
*539 ANTENNA_mux_top_ipin_13\.mux_l2_in_3__A1
*540 ANTENNA_mux_top_ipin_14\.mux_l1_in_0__A0
*541 ANTENNA_mux_top_ipin_14\.mux_l1_in_0__A1
*542 ANTENNA_mux_top_ipin_14\.mux_l2_in_0__A0
*543 ANTENNA_mux_top_ipin_14\.mux_l2_in_1__A0
*544 ANTENNA_mux_top_ipin_14\.mux_l2_in_1__A1
*545 ANTENNA_mux_top_ipin_14\.mux_l2_in_2__A0
*546 ANTENNA_mux_top_ipin_14\.mux_l2_in_2__A1
*547 ANTENNA_mux_top_ipin_14\.mux_l2_in_3__A1
*548 ANTENNA_mux_top_ipin_15\.mux_l1_in_0__A0
*549 ANTENNA_mux_top_ipin_15\.mux_l1_in_0__A1
*550 ANTENNA_mux_top_ipin_15\.mux_l1_in_1__A0
*551 ANTENNA_mux_top_ipin_15\.mux_l1_in_1__A1
*552 ANTENNA_mux_top_ipin_15\.mux_l1_in_2__A0
*553 ANTENNA_mux_top_ipin_15\.mux_l1_in_2__A1
*554 ANTENNA_mux_top_ipin_15\.mux_l2_in_1__A0
*555 ANTENNA_mux_top_ipin_15\.mux_l2_in_2__A0
*556 ANTENNA_mux_top_ipin_15\.mux_l2_in_2__A1
*557 ANTENNA_mux_top_ipin_15\.mux_l2_in_3__A1
*558 ANTENNA_mux_top_ipin_2\.mux_l1_in_0__A0
*559 ANTENNA_mux_top_ipin_2\.mux_l1_in_0__A1
*560 ANTENNA_mux_top_ipin_2\.mux_l2_in_0__A0
*561 ANTENNA_mux_top_ipin_2\.mux_l2_in_1__A0
*562 ANTENNA_mux_top_ipin_2\.mux_l2_in_1__A1
*563 ANTENNA_mux_top_ipin_2\.mux_l2_in_2__A0
*564 ANTENNA_mux_top_ipin_2\.mux_l2_in_2__A1
*565 ANTENNA_mux_top_ipin_2\.mux_l2_in_3__A1
*566 ANTENNA_mux_top_ipin_3\.mux_l1_in_0__A0
*567 ANTENNA_mux_top_ipin_3\.mux_l1_in_0__A1
*568 ANTENNA_mux_top_ipin_3\.mux_l1_in_1__A0
*569 ANTENNA_mux_top_ipin_3\.mux_l1_in_1__A1
*570 ANTENNA_mux_top_ipin_3\.mux_l1_in_2__A0
*571 ANTENNA_mux_top_ipin_3\.mux_l1_in_2__A1
*572 ANTENNA_mux_top_ipin_3\.mux_l2_in_0__S
*573 ANTENNA_mux_top_ipin_3\.mux_l2_in_1__A0
*574 ANTENNA_mux_top_ipin_3\.mux_l2_in_1__S
*575 ANTENNA_mux_top_ipin_3\.mux_l2_in_2__A0
*576 ANTENNA_mux_top_ipin_3\.mux_l2_in_2__A1
*577 ANTENNA_mux_top_ipin_3\.mux_l2_in_2__S
*578 ANTENNA_mux_top_ipin_3\.mux_l2_in_3__A1
*579 ANTENNA_mux_top_ipin_3\.mux_l2_in_3__S
*580 ANTENNA_mux_top_ipin_3\.mux_l3_in_0__S
*581 ANTENNA_mux_top_ipin_3\.mux_l3_in_1__S
*582 ANTENNA_mux_top_ipin_4\.mux_l1_in_0__A0
*583 ANTENNA_mux_top_ipin_4\.mux_l1_in_0__A1
*584 ANTENNA_mux_top_ipin_4\.mux_l1_in_1__A0
*585 ANTENNA_mux_top_ipin_4\.mux_l1_in_1__A1
*586 ANTENNA_mux_top_ipin_4\.mux_l1_in_2__A0
*587 ANTENNA_mux_top_ipin_4\.mux_l1_in_2__A1
*588 ANTENNA_mux_top_ipin_4\.mux_l2_in_1__A0
*589 ANTENNA_mux_top_ipin_4\.mux_l2_in_2__A0
*590 ANTENNA_mux_top_ipin_4\.mux_l2_in_2__A1
*591 ANTENNA_mux_top_ipin_4\.mux_l2_in_3__A1
*592 ANTENNA_mux_top_ipin_5\.mux_l1_in_0__A0
*593 ANTENNA_mux_top_ipin_5\.mux_l1_in_0__A1
*594 ANTENNA_mux_top_ipin_5\.mux_l2_in_0__A0
*595 ANTENNA_mux_top_ipin_5\.mux_l2_in_1__A0
*596 ANTENNA_mux_top_ipin_5\.mux_l2_in_1__A1
*597 ANTENNA_mux_top_ipin_5\.mux_l2_in_2__A0
*598 ANTENNA_mux_top_ipin_5\.mux_l2_in_2__A1
*599 ANTENNA_mux_top_ipin_5\.mux_l2_in_3__A1
*600 ANTENNA_mux_top_ipin_6\.mux_l1_in_0__A0
*601 ANTENNA_mux_top_ipin_6\.mux_l1_in_0__A1
*602 ANTENNA_mux_top_ipin_6\.mux_l2_in_0__A0
*603 ANTENNA_mux_top_ipin_6\.mux_l2_in_1__A0
*604 ANTENNA_mux_top_ipin_6\.mux_l2_in_1__A1
*605 ANTENNA_mux_top_ipin_6\.mux_l2_in_2__A0
*606 ANTENNA_mux_top_ipin_6\.mux_l2_in_2__A1
*607 ANTENNA_mux_top_ipin_6\.mux_l2_in_3__A1
*608 ANTENNA_mux_top_ipin_7\.mux_l1_in_0__A0
*609 ANTENNA_mux_top_ipin_7\.mux_l1_in_0__A1
*610 ANTENNA_mux_top_ipin_7\.mux_l1_in_1__A0
*611 ANTENNA_mux_top_ipin_7\.mux_l1_in_1__A1
*612 ANTENNA_mux_top_ipin_7\.mux_l1_in_2__A0
*613 ANTENNA_mux_top_ipin_7\.mux_l1_in_2__A1
*614 ANTENNA_mux_top_ipin_7\.mux_l2_in_1__A0
*615 ANTENNA_mux_top_ipin_7\.mux_l2_in_2__A0
*616 ANTENNA_mux_top_ipin_7\.mux_l2_in_2__A1
*617 ANTENNA_mux_top_ipin_7\.mux_l2_in_3__A1
*618 ANTENNA_mux_top_ipin_8\.mux_l1_in_0__A0
*619 ANTENNA_mux_top_ipin_8\.mux_l1_in_0__A1
*620 ANTENNA_mux_top_ipin_8\.mux_l1_in_1__A0
*621 ANTENNA_mux_top_ipin_8\.mux_l1_in_1__A1
*622 ANTENNA_mux_top_ipin_8\.mux_l1_in_2__A0
*623 ANTENNA_mux_top_ipin_8\.mux_l1_in_2__A1
*624 ANTENNA_mux_top_ipin_8\.mux_l2_in_1__A0
*625 ANTENNA_mux_top_ipin_8\.mux_l2_in_2__A0
*626 ANTENNA_mux_top_ipin_8\.mux_l2_in_2__A1
*627 ANTENNA_mux_top_ipin_8\.mux_l2_in_3__A1
*628 ANTENNA_mux_top_ipin_9\.mux_l1_in_0__A0
*629 ANTENNA_mux_top_ipin_9\.mux_l1_in_0__A1
*630 ANTENNA_mux_top_ipin_9\.mux_l2_in_0__A0
*631 ANTENNA_mux_top_ipin_9\.mux_l2_in_1__A0
*632 ANTENNA_mux_top_ipin_9\.mux_l2_in_1__A1
*633 ANTENNA_mux_top_ipin_9\.mux_l2_in_2__A0
*634 ANTENNA_mux_top_ipin_9\.mux_l2_in_2__A1
*635 ANTENNA_mux_top_ipin_9\.mux_l2_in_3__A1
*636 ANTENNA_prog_clk_0_FTB00_A
*637 ANTENNA_prog_clk_0_W_FTB01_A
*638 FILLER_0_123
*639 FILLER_0_153
*640 FILLER_0_171
*641 FILLER_0_3
*642 FILLER_0_53
*643 FILLER_0_57
*644 FILLER_10_108
*645 FILLER_10_127
*646 FILLER_10_135
*647 FILLER_10_49
*648 FILLER_10_87
*649 FILLER_10_91
*650 FILLER_11_105
*651 FILLER_11_109
*652 FILLER_11_113
*653 FILLER_11_130
*654 FILLER_11_3
*655 FILLER_11_82
*656 FILLER_11_9
*657 FILLER_12_100
*658 FILLER_12_103
*659 FILLER_12_115
*660 FILLER_12_119
*661 FILLER_12_124
*662 FILLER_12_128
*663 FILLER_12_133
*664 FILLER_12_143
*665 FILLER_12_20
*666 FILLER_12_56
*667 FILLER_13_167
*668 FILLER_13_189
*669 FILLER_13_19
*670 FILLER_13_3
*671 FILLER_13_53
*672 FILLER_13_7
*673 FILLER_14_118
*674 FILLER_14_13
*675 FILLER_14_137
*676 FILLER_14_17
*677 FILLER_14_175
*678 FILLER_14_25
*679 FILLER_14_3
*680 FILLER_14_99
*681 FILLER_15_107
*682 FILLER_15_126
*683 FILLER_15_158
*684 FILLER_15_181
*685 FILLER_15_28
*686 FILLER_15_3
*687 FILLER_15_49
*688 FILLER_15_66
*689 FILLER_16_118
*690 FILLER_16_135
*691 FILLER_16_14
*692 FILLER_16_165
*693 FILLER_16_171
*694 FILLER_16_26
*695 FILLER_16_3
*696 FILLER_16_47
*697 FILLER_17_109
*698 FILLER_17_124
*699 FILLER_17_129
*700 FILLER_17_141
*701 FILLER_17_147
*702 FILLER_17_161
*703 FILLER_17_167
*704 FILLER_17_178
*705 FILLER_17_186
*706 FILLER_17_189
*707 FILLER_17_27
*708 FILLER_17_43
*709 FILLER_17_57
*710 FILLER_17_93
*711 FILLER_17_96
*712 FILLER_18_105
*713 FILLER_18_113
*714 FILLER_18_139
*715 FILLER_18_152
*716 FILLER_18_164
*717 FILLER_18_172
*718 FILLER_18_188
*719 FILLER_18_3
*720 FILLER_18_80
*721 FILLER_19_106
*722 FILLER_19_113
*723 FILLER_19_12
*724 FILLER_19_125
*725 FILLER_19_138
*726 FILLER_19_143
*727 FILLER_19_155
*728 FILLER_19_167
*729 FILLER_19_169
*730 FILLER_19_18
*731 FILLER_19_181
*732 FILLER_19_189
*733 FILLER_19_3
*734 FILLER_19_30
*735 FILLER_19_42
*736 FILLER_19_77
*737 FILLER_19_89
*738 FILLER_19_9
*739 FILLER_19_94
*740 FILLER_1_167
*741 FILLER_1_169
*742 FILLER_1_73
*743 FILLER_20_109
*744 FILLER_20_121
*745 FILLER_20_129
*746 FILLER_20_135
*747 FILLER_20_139
*748 FILLER_20_141
*749 FILLER_20_149
*750 FILLER_20_15
*751 FILLER_20_154
*752 FILLER_20_166
*753 FILLER_20_178
*754 FILLER_20_29
*755 FILLER_20_3
*756 FILLER_20_66
*757 FILLER_20_78
*758 FILLER_20_85
*759 FILLER_20_97
*760 FILLER_21_111
*761 FILLER_21_113
*762 FILLER_21_125
*763 FILLER_21_15
*764 FILLER_21_167
*765 FILLER_21_175
*766 FILLER_21_187
*767 FILLER_21_27
*768 FILLER_21_3
*769 FILLER_21_61
*770 FILLER_21_73
*771 FILLER_21_85
*772 FILLER_21_97
*773 FILLER_22_109
*774 FILLER_22_113
*775 FILLER_22_125
*776 FILLER_22_137
*777 FILLER_22_141
*778 FILLER_22_15
*779 FILLER_22_153
*780 FILLER_22_165
*781 FILLER_22_169
*782 FILLER_22_181
*783 FILLER_22_189
*784 FILLER_22_27
*785 FILLER_22_29
*786 FILLER_22_3
*787 FILLER_22_41
*788 FILLER_22_46
*789 FILLER_22_54
*790 FILLER_22_57
*791 FILLER_22_69
*792 FILLER_22_81
*793 FILLER_22_85
*794 FILLER_22_97
*795 FILLER_2_173
*796 FILLER_2_189
*797 FILLER_2_85
*798 FILLER_3_111
*799 FILLER_3_119
*800 FILLER_3_140
*801 FILLER_3_15
*802 FILLER_3_169
*803 FILLER_3_189
*804 FILLER_4_135
*805 FILLER_4_3
*806 FILLER_4_33
*807 FILLER_5_163
*808 FILLER_5_17
*809 FILLER_5_189
*810 FILLER_5_59
*811 FILLER_6_11
*812 FILLER_6_135
*813 FILLER_6_23
*814 FILLER_6_74
*815 FILLER_6_78
*816 FILLER_6_85
*817 FILLER_7_108
*818 FILLER_7_121
*819 FILLER_7_15
*820 FILLER_7_189
*821 FILLER_7_61
*822 FILLER_7_83
*823 FILLER_7_87
*824 FILLER_8_18
*825 FILLER_8_35
*826 FILLER_8_89
*827 FILLER_8_95
*828 FILLER_9_105
*829 FILLER_9_129
*830 FILLER_9_51
*831 FILLER_9_54
*832 FILLER_9_79
*833 PHY_0
*834 PHY_1
*835 PHY_10
*836 PHY_11
*837 PHY_12
*838 PHY_13
*839 PHY_14
*840 PHY_15
*841 PHY_16
*842 PHY_17
*843 PHY_18
*844 PHY_19
*845 PHY_2
*846 PHY_20
*847 PHY_21