*SPEF "ieee 1481-1999"
*DESIGN "cbx_1__2_"
*DATE "11:11:11 Fri 11 11, 1111"
*VENDOR "OpenRCX"
*PROGRAM "Parallel Extraction"
*VERSION "1.0"
*DESIGN_FLOW "NAME_SCOPE LOCAL" "PIN_CAP NONE"
*DIVIDER /
*DELIMITER :
*BUS_DELIMITER []
*T_UNIT 1 NS
*C_UNIT 1 PF
*R_UNIT 1 OHM
*L_UNIT 1 HENRY

*NAME_MAP
*1 IO_ISOL_N
*2 SC_IN_BOT
*3 SC_IN_TOP
*4 SC_OUT_BOT
*5 SC_OUT_TOP
*8 bottom_grid_pin_0_
*9 bottom_grid_pin_10_
*10 bottom_grid_pin_11_
*11 bottom_grid_pin_12_
*12 bottom_grid_pin_13_
*13 bottom_grid_pin_14_
*14 bottom_grid_pin_15_
*15 bottom_grid_pin_1_
*16 bottom_grid_pin_2_
*17 bottom_grid_pin_3_
*18 bottom_grid_pin_4_
*19 bottom_grid_pin_5_
*20 bottom_grid_pin_6_
*21 bottom_grid_pin_7_
*22 bottom_grid_pin_8_
*23 bottom_grid_pin_9_
*24 bottom_width_0_height_0__pin_0_
*25 bottom_width_0_height_0__pin_1_lower
*26 bottom_width_0_height_0__pin_1_upper
*27 ccff_head
*28 ccff_tail
*29 chanx_left_in[0]
*30 chanx_left_in[10]
*31 chanx_left_in[11]
*32 chanx_left_in[12]
*33 chanx_left_in[13]
*34 chanx_left_in[14]
*35 chanx_left_in[15]
*36 chanx_left_in[16]
*37 chanx_left_in[17]
*38 chanx_left_in[18]
*39 chanx_left_in[19]
*40 chanx_left_in[1]
*41 chanx_left_in[2]
*42 chanx_left_in[3]
*43 chanx_left_in[4]
*44 chanx_left_in[5]
*45 chanx_left_in[6]
*46 chanx_left_in[7]
*47 chanx_left_in[8]
*48 chanx_left_in[9]
*49 chanx_left_out[0]
*50 chanx_left_out[10]
*51 chanx_left_out[11]
*52 chanx_left_out[12]
*53 chanx_left_out[13]
*54 chanx_left_out[14]
*55 chanx_left_out[15]
*56 chanx_left_out[16]
*57 chanx_left_out[17]
*58 chanx_left_out[18]
*59 chanx_left_out[19]
*60 chanx_left_out[1]
*61 chanx_left_out[2]
*62 chanx_left_out[3]
*63 chanx_left_out[4]
*64 chanx_left_out[5]
*65 chanx_left_out[6]
*66 chanx_left_out[7]
*67 chanx_left_out[8]
*68 chanx_left_out[9]
*69 chanx_right_in[0]
*70 chanx_right_in[10]
*71 chanx_right_in[11]
*72 chanx_right_in[12]
*73 chanx_right_in[13]
*74 chanx_right_in[14]
*75 chanx_right_in[15]
*76 chanx_right_in[16]
*77 chanx_right_in[17]
*78 chanx_right_in[18]
*79 chanx_right_in[19]
*80 chanx_right_in[1]
*81 chanx_right_in[2]
*82 chanx_right_in[3]
*83 chanx_right_in[4]
*84 chanx_right_in[5]
*85 chanx_right_in[6]
*86 chanx_right_in[7]
*87 chanx_right_in[8]
*88 chanx_right_in[9]
*89 chanx_right_out[0]
*90 chanx_right_out[10]
*91 chanx_right_out[11]
*92 chanx_right_out[12]
*93 chanx_right_out[13]
*94 chanx_right_out[14]
*95 chanx_right_out[15]
*96 chanx_right_out[16]
*97 chanx_right_out[17]
*98 chanx_right_out[18]
*99 chanx_right_out[19]
*100 chanx_right_out[1]
*101 chanx_right_out[2]
*102 chanx_right_out[3]
*103 chanx_right_out[4]
*104 chanx_right_out[5]
*105 chanx_right_out[6]
*106 chanx_right_out[7]
*107 chanx_right_out[8]
*108 chanx_right_out[9]
*109 gfpga_pad_EMBEDDED_IO_HD_SOC_DIR
*110 gfpga_pad_EMBEDDED_IO_HD_SOC_IN
*111 gfpga_pad_EMBEDDED_IO_HD_SOC_OUT
*112 prog_clk_0_S_in
*113 prog_clk_0_W_out
*114 top_grid_pin_0_
*115 logical_tile_io_mode_io__0\.ccff_head
*116 logical_tile_io_mode_io__0\.ltile_phy_iopad_0\.EMBEDDED_IO_HD_0_\.SOC_DIR_N
*117 logical_tile_io_mode_io__0\.ltile_phy_iopad_0\.EMBEDDED_IO_HD_sky130_fd_sc_hd__dfxtp_1_mem\.prog_clk
*118 mem_bottom_ipin_0\.ccff_tail
*119 mem_bottom_ipin_0\.mem_out\[0\]
*120 mem_bottom_ipin_0\.mem_out\[1\]
*121 mem_bottom_ipin_0\.mem_out\[2\]
*122 mem_top_ipin_0\.ccff_tail
*123 mem_top_ipin_0\.mem_out\[0\]
*124 mem_top_ipin_0\.mem_out\[1\]
*125 mem_top_ipin_0\.mem_out\[2\]
*126 mem_top_ipin_1\.ccff_tail
*127 mem_top_ipin_1\.mem_out\[0\]
*128 mem_top_ipin_1\.mem_out\[1\]
*129 mem_top_ipin_1\.mem_out\[2\]
*130 mem_top_ipin_10\.ccff_head
*131 mem_top_ipin_10\.ccff_tail
*132 mem_top_ipin_10\.mem_out\[0\]
*133 mem_top_ipin_10\.mem_out\[1\]
*134 mem_top_ipin_10\.mem_out\[2\]
*135 mem_top_ipin_11\.ccff_tail
*136 mem_top_ipin_11\.mem_out\[0\]
*137 mem_top_ipin_11\.mem_out\[1\]
*138 mem_top_ipin_11\.mem_out\[2\]
*139 mem_top_ipin_12\.ccff_tail
*140 mem_top_ipin_12\.mem_out\[0\]
*141 mem_top_ipin_12\.mem_out\[1\]
*142 mem_top_ipin_12\.mem_out\[2\]
*143 mem_top_ipin_13\.ccff_tail
*144 mem_top_ipin_13\.mem_out\[0\]
*145 mem_top_ipin_13\.mem_out\[1\]
*146 mem_top_ipin_13\.mem_out\[2\]
*147 mem_top_ipin_14\.ccff_tail
*148 mem_top_ipin_14\.mem_out\[0\]
*149 mem_top_ipin_14\.mem_out\[1\]
*150 mem_top_ipin_14\.mem_out\[2\]
*151 mem_top_ipin_15\.mem_out\[0\]
*152 mem_top_ipin_15\.mem_out\[1\]
*153 mem_top_ipin_15\.mem_out\[2\]
*154 mem_top_ipin_2\.ccff_tail
*155 mem_top_ipin_2\.mem_out\[0\]
*156 mem_top_ipin_2\.mem_out\[1\]
*157 mem_top_ipin_2\.mem_out\[2\]
*158 mem_top_ipin_3\.ccff_tail
*159 mem_top_ipin_3\.mem_out\[0\]
*160 mem_top_ipin_3\.mem_out\[1\]
*161 mem_top_ipin_3\.mem_out\[2\]
*162 mem_top_ipin_4\.ccff_tail
*163 mem_top_ipin_4\.mem_out\[0\]
*164 mem_top_ipin_4\.mem_out\[1\]
*165 mem_top_ipin_4\.mem_out\[2\]
*166 mem_top_ipin_5\.ccff_tail
*167 mem_top_ipin_5\.mem_out\[0\]
*168 mem_top_ipin_5\.mem_out\[1\]
*169 mem_top_ipin_5\.mem_out\[2\]
*170 mem_top_ipin_6\.ccff_tail
*171 mem_top_ipin_6\.mem_out\[0\]
*172 mem_top_ipin_6\.mem_out\[1\]
*173 mem_top_ipin_6\.mem_out\[2\]
*174 mem_top_ipin_7\.ccff_tail
*175 mem_top_ipin_7\.mem_out\[0\]
*176 mem_top_ipin_7\.mem_out\[1\]
*177 mem_top_ipin_7\.mem_out\[2\]
*178 mem_top_ipin_8\.ccff_tail
*179 mem_top_ipin_8\.mem_out\[0\]
*180 mem_top_ipin_8\.mem_out\[1\]
*181 mem_top_ipin_8\.mem_out\[2\]
*182 mem_top_ipin_9\.mem_out\[0\]
*183 mem_top_ipin_9\.mem_out\[1\]
*184 mem_top_ipin_9\.mem_out\[2\]
*185 mux_bottom_ipin_0\.sky130_fd_sc_hd__mux2_1_0_X
*186 mux_bottom_ipin_0\.sky130_fd_sc_hd__mux2_1_1_X
*187 mux_bottom_ipin_0\.sky130_fd_sc_hd__mux2_1_2_X
*188 mux_bottom_ipin_0\.sky130_fd_sc_hd__mux2_1_3_X
*189 mux_bottom_ipin_0\.sky130_fd_sc_hd__mux2_1_4_X
*190 mux_bottom_ipin_0\.sky130_fd_sc_hd__mux2_1_5_X
*191 mux_bottom_ipin_0\.sky130_fd_sc_hd__mux2_1_6_X
*192 mux_bottom_ipin_0\.sky130_fd_sc_hd__mux2_1_7_X
*193 mux_bottom_ipin_0\.sky130_fd_sc_hd__mux2_1_8_X
*194 mux_bottom_ipin_0\.sky130_fd_sc_hd__mux2_1_9_X
*195 mux_top_ipin_0\.sky130_fd_sc_hd__mux2_1_0_X
*196 mux_top_ipin_0\.sky130_fd_sc_hd__mux2_1_1_X
*197 mux_top_ipin_0\.sky130_fd_sc_hd__mux2_1_2_X
*198 mux_top_ipin_0\.sky130_fd_sc_hd__mux2_1_3_X
*199 mux_top_ipin_0\.sky130_fd_sc_hd__mux2_1_4_X
*200 mux_top_ipin_0\.sky130_fd_sc_hd__mux2_1_5_X
*201 mux_top_ipin_0\.sky130_fd_sc_hd__mux2_1_6_X
*202 mux_top_ipin_0\.sky130_fd_sc_hd__mux2_1_7_X
*203 mux_top_ipin_0\.sky130_fd_sc_hd__mux2_1_8_X
*204 mux_top_ipin_0\.sky130_fd_sc_hd__mux2_1_9_X
*205 mux_top_ipin_1\.sky130_fd_sc_hd__mux2_1_0_X
*206 mux_top_ipin_1\.sky130_fd_sc_hd__mux2_1_1_X
*207 mux_top_ipin_1\.sky130_fd_sc_hd__mux2_1_2_X
*208 mux_top_ipin_1\.sky130_fd_sc_hd__mux2_1_3_X
*209 mux_top_ipin_1\.sky130_fd_sc_hd__mux2_1_4_X
*210 mux_top_ipin_1\.sky130_fd_sc_hd__mux2_1_5_X
*211 mux_top_ipin_1\.sky130_fd_sc_hd__mux2_1_6_X
*212 mux_top_ipin_1\.sky130_fd_sc_hd__mux2_1_7_X
*213 mux_top_ipin_10\.sky130_fd_sc_hd__mux2_1_0_X
*214 mux_top_ipin_10\.sky130_fd_sc_hd__mux2_1_1_X
*215 mux_top_ipin_10\.sky130_fd_sc_hd__mux2_1_2_X
*216 mux_top_ipin_10\.sky130_fd_sc_hd__mux2_1_3_X
*217 mux_top_ipin_10\.sky130_fd_sc_hd__mux2_1_4_X
*218 mux_top_ipin_10\.sky130_fd_sc_hd__mux2_1_5_X
*219 mux_top_ipin_10\.sky130_fd_sc_hd__mux2_1_6_X
*220 mux_top_ipin_10\.sky130_fd_sc_hd__mux2_1_7_X
*221 mux_top_ipin_11\.sky130_fd_sc_hd__mux2_1_0_X
*222 mux_top_ipin_11\.sky130_fd_sc_hd__mux2_1_1_X
*223 mux_top_ipin_11\.sky130_fd_sc_hd__mux2_1_2_X
*224 mux_top_ipin_11\.sky130_fd_sc_hd__mux2_1_3_X
*225 mux_top_ipin_11\.sky130_fd_sc_hd__mux2_1_4_X
*226 mux_top_ipin_11\.sky130_fd_sc_hd__mux2_1_5_X
*227 mux_top_ipin_11\.sky130_fd_sc_hd__mux2_1_6_X
*228 mux_top_ipin_11\.sky130_fd_sc_hd__mux2_1_7_X
*229 mux_top_ipin_11\.sky130_fd_sc_hd__mux2_1_8_X
*230 mux_top_ipin_11\.sky130_fd_sc_hd__mux2_1_9_X
*231 mux_top_ipin_12\.sky130_fd_sc_hd__mux2_1_0_X
*232 mux_top_ipin_12\.sky130_fd_sc_hd__mux2_1_1_X
*233 mux_top_ipin_12\.sky130_fd_sc_hd__mux2_1_2_X
*234 mux_top_ipin_12\.sky130_fd_sc_hd__mux2_1_3_X
*235 mux_top_ipin_12\.sky130_fd_sc_hd__mux2_1_4_X
*236 mux_top_ipin_12\.sky130_fd_sc_hd__mux2_1_5_X
*237 mux_top_ipin_12\.sky130_fd_sc_hd__mux2_1_6_X
*238 mux_top_ipin_12\.sky130_fd_sc_hd__mux2_1_7_X
*239 mux_top_ipin_12\.sky130_fd_sc_hd__mux2_1_8_X
*240 mux_top_ipin_12\.sky130_fd_sc_hd__mux2_1_9_X
*241 mux_top_ipin_13\.sky130_fd_sc_hd__mux2_1_0_X
*242 mux_top_ipin_13\.sky130_fd_sc_hd__mux2_1_1_X
*243 mux_top_ipin_13\.sky130_fd_sc_hd__mux2_1_2_X
*244 mux_top_ipin_13\.sky130_fd_sc_hd__mux2_1_3_X
*245 mux_top_ipin_13\.sky130_fd_sc_hd__mux2_1_4_X
*246 mux_top_ipin_13\.sky130_fd_sc_hd__mux2_1_5_X
*247 mux_top_ipin_13\.sky130_fd_sc_hd__mux2_1_6_X
*248 mux_top_ipin_13\.sky130_fd_sc_hd__mux2_1_7_X
*249 mux_top_ipin_14\.sky130_fd_sc_hd__mux2_1_0_X
*250 mux_top_ipin_14\.sky130_fd_sc_hd__mux2_1_1_X
*251 mux_top_ipin_14\.sky130_fd_sc_hd__mux2_1_2_X
*252 mux_top_ipin_14\.sky130_fd_sc_hd__mux2_1_3_X
*253 mux_top_ipin_14\.sky130_fd_sc_hd__mux2_1_4_X
*254 mux_top_ipin_14\.sky130_fd_sc_hd__mux2_1_5_X
*255 mux_top_ipin_14\.sky130_fd_sc_hd__mux2_1_6_X
*256 mux_top_ipin_14\.sky130_fd_sc_hd__mux2_1_7_X
*257 mux_top_ipin_15\.sky130_fd_sc_hd__mux2_1_0_X
*258 mux_top_ipin_15\.sky130_fd_sc_hd__mux2_1_1_X
*259 mux_top_ipin_15\.sky130_fd_sc_hd__mux2_1_2_X
*260 mux_top_ipin_15\.sky130_fd_sc_hd__mux2_1_3_X
*261 mux_top_ipin_15\.sky130_fd_sc_hd__mux2_1_4_X
*262 mux_top_ipin_15\.sky130_fd_sc_hd__mux2_1_5_X
*263 mux_top_ipin_15\.sky130_fd_sc_hd__mux2_1_6_X
*264 mux_top_ipin_15\.sky130_fd_sc_hd__mux2_1_7_X
*265 mux_top_ipin_15\.sky130_fd_sc_hd__mux2_1_8_X
*266 mux_top_ipin_15\.sky130_fd_sc_hd__mux2_1_9_X
*267 mux_top_ipin_2\.sky130_fd_sc_hd__mux2_1_0_X
*268 mux_top_ipin_2\.sky130_fd_sc_hd__mux2_1_1_X
*269 mux_top_ipin_2\.sky130_fd_sc_hd__mux2_1_2_X
*270 mux_top_ipin_2\.sky130_fd_sc_hd__mux2_1_3_X
*271 mux_top_ipin_2\.sky130_fd_sc_hd__mux2_1_4_X
*272 mux_top_ipin_2\.sky130_fd_sc_hd__mux2_1_5_X
*273 mux_top_ipin_2\.sky130_fd_sc_hd__mux2_1_6_X
*274 mux_top_ipin_2\.sky130_fd_sc_hd__mux2_1_7_X
*275 mux_top_ipin_3\.sky130_fd_sc_hd__mux2_1_0_X
*276 mux_top_ipin_3\.sky130_fd_sc_hd__mux2_1_1_X
*277 mux_top_ipin_3\.sky130_fd_sc_hd__mux2_1_2_X
*278 mux_top_ipin_3\.sky130_fd_sc_hd__mux2_1_3_X
*279 mux_top_ipin_3\.sky130_fd_sc_hd__mux2_1_4_X
*280 mux_top_ipin_3\.sky130_fd_sc_hd__mux2_1_5_X
*281 mux_top_ipin_3\.sky130_fd_sc_hd__mux2_1_6_X
*282 mux_top_ipin_3\.sky130_fd_sc_hd__mux2_1_7_X
*283 mux_top_ipin_3\.sky130_fd_sc_hd__mux2_1_8_X
*284 mux_top_ipin_3\.sky130_fd_sc_hd__mux2_1_9_X
*285 mux_top_ipin_4\.sky130_fd_sc_hd__mux2_1_0_X
*286 mux_top_ipin_4\.sky130_fd_sc_hd__mux2_1_1_X
*287 mux_top_ipin_4\.sky130_fd_sc_hd__mux2_1_2_X
*288 mux_top_ipin_4\.sky130_fd_sc_hd__mux2_1_3_X
*289 mux_top_ipin_4\.sky130_fd_sc_hd__mux2_1_4_X
*290 mux_top_ipin_4\.sky130_fd_sc_hd__mux2_1_5_X
*291 mux_top_ipin_4\.sky130_fd_sc_hd__mux2_1_6_X
*292 mux_top_ipin_4\.sky130_fd_sc_hd__mux2_1_7_X
*293 mux_top_ipin_4\.sky130_fd_sc_hd__mux2_1_8_X
*294 mux_top_ipin_4\.sky130_fd_sc_hd__mux2_1_9_X
*295 mux_top_ipin_5\.sky130_fd_sc_hd__mux2_1_0_X
*296 mux_top_ipin_5\.sky130_fd_sc_hd__mux2_1_1_X
*297 mux_top_ipin_5\.sky130_fd_sc_hd__mux2_1_2_X
*298 mux_top_ipin_5\.sky130_fd_sc_hd__mux2_1_3_X
*299 mux_top_ipin_5\.sky130_fd_sc_hd__mux2_1_4_X
*300 mux_top_ipin_5\.sky130_fd_sc_hd__mux2_1_5_X
*301 mux_top_ipin_5\.sky130_fd_sc_hd__mux2_1_6_X
*302 mux_top_ipin_5\.sky130_fd_sc_hd__mux2_1_7_X
*303 mux_top_ipin_6\.sky130_fd_sc_hd__mux2_1_0_X
*304 mux_top_ipin_6\.sky130_fd_sc_hd__mux2_1_1_X
*305 mux_top_ipin_6\.sky130_fd_sc_hd__mux2_1_2_X
*306 mux_top_ipin_6\.sky130_fd_sc_hd__mux2_1_3_X
*307 mux_top_ipin_6\.sky130_fd_sc_hd__mux2_1_4_X
*308 mux_top_ipin_6\.sky130_fd_sc_hd__mux2_1_5_X
*309 mux_top_ipin_6\.sky130_fd_sc_hd__mux2_1_6_X
*310 mux_top_ipin_6\.sky130_fd_sc_hd__mux2_1_7_X
*311 mux_top_ipin_7\.sky130_fd_sc_hd__mux2_1_0_X
*312 mux_top_ipin_7\.sky130_fd_sc_hd__mux2_1_1_X
*313 mux_top_ipin_7\.sky130_fd_sc_hd__mux2_1_2_X
*314 mux_top_ipin_7\.sky130_fd_sc_hd__mux2_1_3_X
*315 mux_top_ipin_7\.sky130_fd_sc_hd__mux2_1_4_X
*316 mux_top_ipin_7\.sky130_fd_sc_hd__mux2_1_5_X
*317 mux_top_ipin_7\.sky130_fd_sc_hd__mux2_1_6_X
*318 mux_top_ipin_7\.sky130_fd_sc_hd__mux2_1_7_X
*319 mux_top_ipin_7\.sky130_fd_sc_hd__mux2_1_8_X
*320 mux_top_ipin_7\.sky130_fd_sc_hd__mux2_1_9_X
*321 mux_top_ipin_8\.sky130_fd_sc_hd__mux2_1_0_X
*322 mux_top_ipin_8\.sky130_fd_sc_hd__mux2_1_1_X
*323 mux_top_ipin_8\.sky130_fd_sc_hd__mux2_1_2_X
*324 mux_top_ipin_8\.sky130_fd_sc_hd__mux2_1_3_X
*325 mux_top_ipin_8\.sky130_fd_sc_hd__mux2_1_4_X
*326 mux_top_ipin_8\.sky130_fd_sc_hd__mux2_1_5_X
*327 mux_top_ipin_8\.sky130_fd_sc_hd__mux2_1_6_X
*328 mux_top_ipin_8\.sky130_fd_sc_hd__mux2_1_7_X
*329 mux_top_ipin_8\.sky130_fd_sc_hd__mux2_1_8_X
*330 mux_top_ipin_8\.sky130_fd_sc_hd__mux2_1_9_X
*331 mux_top_ipin_9\.sky130_fd_sc_hd__mux2_1_0_X
*332 mux_top_ipin_9\.sky130_fd_sc_hd__mux2_1_1_X
*333 mux_top_ipin_9\.sky130_fd_sc_hd__mux2_1_2_X
*334 mux_top_ipin_9\.sky130_fd_sc_hd__mux2_1_3_X
*335 mux_top_ipin_9\.sky130_fd_sc_hd__mux2_1_4_X
*336 mux_top_ipin_9\.sky130_fd_sc_hd__mux2_1_5_X
*337 mux_top_ipin_9\.sky130_fd_sc_hd__mux2_1_6_X
*338 mux_top_ipin_9\.sky130_fd_sc_hd__mux2_1_7_X
*339 net1
*340 net10
*341 net100
*342 net101
*343 net102
*344 net103
*345 net104
*346 net105
*347 net106
*348 net107
*349 net108
*350 net109
*351 net11
*352 net110
*353 net111
*354 net112
*355 net113
*356 net114
*357 net115
*358 net116
*359 net117
*360 net118
*361 net119
*362 net12
*363 net120
*364 net121
*365 net122
*366 net123
*367 net124
*368 net125
*369 net126
*370 net127
*371 net128
*372 net129
*373 net13
*374 net130
*375 net131
*376 net132
*377 net133
*378 net134
*379 net135
*380 net136
*381 net137
*382 net138
*383 net139
*384 net14
*385 net140
*386 net141
*387 net142
*388 net15
*389 net16
*390 net17
*391 net18
*392 net19
*393 net2
*394 net20
*395 net21
*396 net22
*397 net23
*398 net24
*399 net25
*400 net26
*401 net27
*402 net28
*403 net29
*404 net3
*405 net30
*406 net31
*407 net32
*408 net33
*409 net34
*410 net35
*411 net36
*412 net37
*413 net38
*414 net39
*415 net4
*416 net40
*417 net41
*418 net42
*419 net43
*420 net44
*421 net45
*422 net46
*423 net47
*424 net48
*425 net49
*426 net5
*427 net50
*428 net51
*429 net52
*430 net53
*431 net54
*432 net55
*433 net56
*434 net57
*435 net58
*436 net59
*437 net6
*438 net60
*439 net61
*440 net62
*441 net63
*442 net64
*443 net65
*444 net66
*445 net67
*446 net68
*447 net69
*448 net7
*449 net70
*450 net71
*451 net72
*452 net73
*453 net74
*454 net75
*455 net76
*456 net77
*457 net78
*458 net79
*459 net8
*460 net80
*461 net81
*462 net82
*463 net83
*464 net84
*465 net85
*466 net86
*467 net87
*468 net88
*469 net89
*470 net9
*471 net90
*472 net91
*473 net92
*474 net93
*475 net94
*476 net95
*477 net96
*478 net97
*479 net98
*480 net99
*481 ANTENNA__36__A
*482 ANTENNA__41__A
*483 ANTENNA__42__A
*484 ANTENNA__43__A
*485 ANTENNA__44__A
*486 ANTENNA__45__A
*487 ANTENNA__46__A
*488 ANTENNA__47__A
*489 ANTENNA__49__A
*490 ANTENNA__50__A
*491 ANTENNA__51__A
*492 ANTENNA__52__A
*493 ANTENNA__53__A
*494 ANTENNA__55__A
*495 ANTENNA__56__A
*496 ANTENNA__61__A
*497 ANTENNA__63__A
*498 ANTENNA__64__A
*499 ANTENNA__65__A
*500 ANTENNA__66__A
*501 ANTENNA__67__A
*502 ANTENNA__68__A
*503 ANTENNA__69__A
*504 ANTENNA__70__A
*505 ANTENNA__71__A
*506 ANTENNA__72__A
*507 ANTENNA__73__A
*508 ANTENNA__74__A
*509 ANTENNA__75__A
*510 ANTENNA__76__A
*511 ANTENNA_input10_A
*512 ANTENNA_input11_A
*513 ANTENNA_input12_A
*514 ANTENNA_input13_A
*515 ANTENNA_input14_A
*516 ANTENNA_input15_A
*517 ANTENNA_input16_A
*518 ANTENNA_input17_A
*519 ANTENNA_input18_A
*520 ANTENNA_input19_A
*521 ANTENNA_input1_A
*522 ANTENNA_input20_A
*523 ANTENNA_input21_A
*524 ANTENNA_input22_A
*525 ANTENNA_input23_A
*526 ANTENNA_input24_A
*527 ANTENNA_input25_A
*528 ANTENNA_input26_A
*529 ANTENNA_input27_A
*530 ANTENNA_input28_A
*531 ANTENNA_input29_A
*532 ANTENNA_input2_A
*533 ANTENNA_input30_A
*534 ANTENNA_input31_A
*535 ANTENNA_input32_A
*536 ANTENNA_input33_A
*537 ANTENNA_input34_A
*538 ANTENNA_input35_A
*539 ANTENNA_input36_A
*540 ANTENNA_input37_A
*541 ANTENNA_input38_A
*542 ANTENNA_input39_A
*543 ANTENNA_input3_A
*544 ANTENNA_input40_A
*545 ANTENNA_input41_A
*546 ANTENNA_input42_A
*547 ANTENNA_input43_A
*548 ANTENNA_input44_A
*549 ANTENNA_input45_A
*550 ANTENNA_input46_A
*551 ANTENNA_input4_A
*552 ANTENNA_input5_A
*553 ANTENNA_input6_A
*554 ANTENNA_input7_A
*555 ANTENNA_input8_A
*556 ANTENNA_input9_A
*557 ANTENNA_mem_top_ipin_1\.sky130_fd_sc_hd__dfxtp_1_0__D
*558 ANTENNA_mem_top_ipin_3\.sky130_fd_sc_hd__dfxtp_1_2__D
*559 ANTENNA_mem_top_ipin_3\.sky130_fd_sc_hd__dfxtp_1_3__D
*560 ANTENNA_mux_bottom_ipin_0\.mux_l1_in_2__A0
*561 ANTENNA_mux_bottom_ipin_0\.mux_l1_in_2__A1
*562 ANTENNA_mux_bottom_ipin_0\.mux_l2_in_1__A0
*563 ANTENNA_mux_bottom_ipin_0\.mux_l2_in_2__A0
*564 ANTENNA_mux_bottom_ipin_0\.mux_l2_in_2__A1
*565 ANTENNA_mux_bottom_ipin_0\.mux_l2_in_3__A1
*566 ANTENNA_mux_top_ipin_0\.mux_l1_in_2__A0
*567 ANTENNA_mux_top_ipin_0\.mux_l2_in_1__A0
*568 ANTENNA_mux_top_ipin_0\.mux_l2_in_2__A0
*569 ANTENNA_mux_top_ipin_0\.mux_l4_in_0__S
*570 ANTENNA_mux_top_ipin_1\.mux_l2_in_1__A0
*571 ANTENNA_mux_top_ipin_1\.mux_l2_in_2__A0
*572 ANTENNA_mux_top_ipin_1\.mux_l2_in_2__A1
*573 ANTENNA_mux_top_ipin_1\.mux_l2_in_3__A1
*574 ANTENNA_mux_top_ipin_10\.mux_l2_in_1__A0
*575 ANTENNA_mux_top_ipin_10\.mux_l2_in_2__A0
*576 ANTENNA_mux_top_ipin_10\.mux_l2_in_2__A1
*577 ANTENNA_mux_top_ipin_10\.mux_l2_in_3__A1
*578 ANTENNA_mux_top_ipin_11\.mux_l1_in_1__A0
*579 ANTENNA_mux_top_ipin_11\.mux_l1_in_2__A0
*580 ANTENNA_mux_top_ipin_11\.mux_l1_in_2__A1
*581 ANTENNA_mux_top_ipin_11\.mux_l2_in_1__A0
*582 ANTENNA_mux_top_ipin_11\.mux_l2_in_2__A0
*583 ANTENNA_mux_top_ipin_11\.mux_l2_in_2__A1
*584 ANTENNA_mux_top_ipin_11\.mux_l2_in_3__A1
*585 ANTENNA_mux_top_ipin_12\.mux_l1_in_2__A0
*586 ANTENNA_mux_top_ipin_12\.mux_l1_in_2__A1
*587 ANTENNA_mux_top_ipin_12\.mux_l2_in_1__A0
*588 ANTENNA_mux_top_ipin_12\.mux_l2_in_2__A0
*589 ANTENNA_mux_top_ipin_12\.mux_l2_in_2__A1
*590 ANTENNA_mux_top_ipin_13\.mux_l2_in_1__A0
*591 ANTENNA_mux_top_ipin_13\.mux_l2_in_2__A0
*592 ANTENNA_mux_top_ipin_13\.mux_l2_in_2__A1
*593 ANTENNA_mux_top_ipin_13\.mux_l2_in_3__A1
*594 ANTENNA_mux_top_ipin_14\.mux_l2_in_1__A0
*595 ANTENNA_mux_top_ipin_14\.mux_l2_in_2__A0
*596 ANTENNA_mux_top_ipin_14\.mux_l2_in_3__A1
*597 ANTENNA_mux_top_ipin_15\.mux_l1_in_2__A0
*598 ANTENNA_mux_top_ipin_15\.mux_l1_in_2__A1
*599 ANTENNA_mux_top_ipin_15\.mux_l2_in_1__A0
*600 ANTENNA_mux_top_ipin_15\.mux_l2_in_2__A0
*601 ANTENNA_mux_top_ipin_15\.mux_l2_in_2__A1
*602 ANTENNA_mux_top_ipin_15\.mux_l2_in_3__A1
*603 ANTENNA_mux_top_ipin_2\.mux_l2_in_1__A0
*604 ANTENNA_mux_top_ipin_2\.mux_l2_in_2__A0
*605 ANTENNA_mux_top_ipin_2\.mux_l2_in_2__A1
*606 ANTENNA_mux_top_ipin_2\.mux_l2_in_3__A1
*607 ANTENNA_mux_top_ipin_3\.mux_l1_in_2__A0
*608 ANTENNA_mux_top_ipin_3\.mux_l1_in_2__A1
*609 ANTENNA_mux_top_ipin_3\.mux_l2_in_0__S
*610 ANTENNA_mux_top_ipin_3\.mux_l2_in_1__A0
*611 ANTENNA_mux_top_ipin_3\.mux_l2_in_1__S
*612 ANTENNA_mux_top_ipin_3\.mux_l2_in_2__A0
*613 ANTENNA_mux_top_ipin_3\.mux_l2_in_2__A1
*614 ANTENNA_mux_top_ipin_3\.mux_l2_in_2__S
*615 ANTENNA_mux_top_ipin_3\.mux_l2_in_3__A1
*616 ANTENNA_mux_top_ipin_3\.mux_l2_in_3__S
*617 ANTENNA_mux_top_ipin_3\.mux_l3_in_0__S
*618 ANTENNA_mux_top_ipin_3\.mux_l3_in_1__S
*619 ANTENNA_mux_top_ipin_4\.mux_l1_in_2__A0
*620 ANTENNA_mux_top_ipin_4\.mux_l2_in_1__A0
*621 ANTENNA_mux_top_ipin_4\.mux_l2_in_2__A0
*622 ANTENNA_mux_top_ipin_4\.mux_l2_in_2__A1
*623 ANTENNA_mux_top_ipin_4\.mux_l2_in_3__A1
*624 ANTENNA_mux_top_ipin_5\.mux_l2_in_1__A0
*625 ANTENNA_mux_top_ipin_5\.mux_l2_in_1__A1
*626 ANTENNA_mux_top_ipin_5\.mux_l2_in_2__A0
*627 ANTENNA_mux_top_ipin_5\.mux_l2_in_2__A1
*628 ANTENNA_mux_top_ipin_5\.mux_l2_in_3__A1
*629 ANTENNA_mux_top_ipin_6\.mux_l2_in_1__A0
*630 ANTENNA_mux_top_ipin_6\.mux_l2_in_2__A0
*631 ANTENNA_mux_top_ipin_6\.mux_l2_in_3__A1
*632 ANTENNA_mux_top_ipin_7\.mux_l1_in_1__A0
*633 ANTENNA_mux_top_ipin_7\.mux_l1_in_2__A0
*634 ANTENNA_mux_top_ipin_7\.mux_l1_in_2__A1
*635 ANTENNA_mux_top_ipin_7\.mux_l2_in_1__A0
*636 ANTENNA_mux_top_ipin_7\.mux_l2_in_2__A0
*637 ANTENNA_mux_top_ipin_7\.mux_l2_in_2__A1
*638 ANTENNA_mux_top_ipin_7\.mux_l2_in_3__A1
*639 ANTENNA_mux_top_ipin_8\.mux_l1_in_2__A0
*640 ANTENNA_mux_top_ipin_8\.mux_l1_in_2__A1
*641 ANTENNA_mux_top_ipin_8\.mux_l2_in_1__A0
*642 ANTENNA_mux_top_ipin_8\.mux_l2_in_2__A0
*643 ANTENNA_mux_top_ipin_8\.mux_l2_in_2__A1
*644 ANTENNA_mux_top_ipin_8\.mux_l2_in_3__A1
*645 ANTENNA_mux_top_ipin_9\.mux_l2_in_1__A0
*646 ANTENNA_mux_top_ipin_9\.mux_l2_in_2__A0
*647 ANTENNA_mux_top_ipin_9\.mux_l2_in_2__A1
*648 ANTENNA_mux_top_ipin_9\.mux_l2_in_3__A1
*649 ANTENNA_prog_clk_0_FTB00_A
*650 ANTENNA_prog_clk_0_W_FTB01_A
*651 ANTENNA_repeater114_A
*652 FILLER_0_169
*653 FILLER_0_19
*654 FILLER_10_110
*655 FILLER_10_127
*656 FILLER_10_51
*657 FILLER_10_85
*658 FILLER_10_91
*659 FILLER_11_103
*660 FILLER_11_111
*661 FILLER_11_113
*662 FILLER_11_28
*663 FILLER_11_86
*664 FILLER_12_115
*665 FILLER_12_122
*666 FILLER_12_128
*667 FILLER_12_133
*668 FILLER_12_185
*669 FILLER_12_27
*670 FILLER_12_58
*671 FILLER_12_96
*672 FILLER_13_167
*673 FILLER_13_43
*674 FILLER_13_53
*675 FILLER_13_7
*676 FILLER_14_101
*677 FILLER_14_139
*678 FILLER_14_15
*679 FILLER_14_168
*680 FILLER_14_178
*681 FILLER_14_185
*682 FILLER_14_29
*683 FILLER_14_95
*684 FILLER_15_109
*685 FILLER_15_126
*686 FILLER_15_137
*687 FILLER_15_158
*688 FILLER_15_181
*689 FILLER_15_185
*690 FILLER_15_46
*691 FILLER_15_95
*692 FILLER_16_116
*693 FILLER_16_124
*694 FILLER_16_16
*695 FILLER_16_161
*696 FILLER_16_47
*697 FILLER_17_109
*698 FILLER_17_122
*699 FILLER_17_141
*700 FILLER_17_145
*701 FILLER_17_178
*702 FILLER_17_31
*703 FILLER_17_43
*704 FILLER_17_53
*705 FILLER_17_57
*706 FILLER_17_96
*707 FILLER_18_105
*708 FILLER_18_113
*709 FILLER_18_152
*710 FILLER_18_170
*711 FILLER_18_78
*712 FILLER_19_108
*713 FILLER_19_113
*714 FILLER_19_125
*715 FILLER_19_141
*716 FILLER_19_153
*717 FILLER_19_157
*718 FILLER_19_173
*719 FILLER_19_27
*720 FILLER_19_32
*721 FILLER_19_66
*722 FILLER_19_83
*723 FILLER_19_90
*724 FILLER_19_96
*725 FILLER_1_117
*726 FILLER_20_109
*727 FILLER_20_121
*728 FILLER_20_133
*729 FILLER_20_139
*730 FILLER_20_141
*731 FILLER_20_149
*732 FILLER_20_173
*733 FILLER_20_55
*734 FILLER_20_75
*735 FILLER_20_83
*736 FILLER_20_85
*737 FILLER_20_97
*738 FILLER_21_109
*739 FILLER_21_113
*740 FILLER_21_125
*741 FILLER_21_157
*742 FILLER_21_55
*743 FILLER_21_67
*744 FILLER_21_79
*745 FILLER_21_91
*746 FILLER_21_99
*747 FILLER_22_101
*748 FILLER_22_109
*749 FILLER_22_113
*750 FILLER_22_125
*751 FILLER_22_137
*752 FILLER_22_141
*753 FILLER_22_169
*754 FILLER_22_27
*755 FILLER_22_55
*756 FILLER_22_65
*757 FILLER_22_76
*758 FILLER_22_85
*759 FILLER_2_112
*760 FILLER_2_15
*761 FILLER_2_173
*762 FILLER_2_83
*763 FILLER_2_91
*764 FILLER_3_111
*765 FILLER_3_113
*766 FILLER_3_169
*767 FILLER_4_102
*768 FILLER_4_131
*769 FILLER_4_67
*770 FILLER_5_17
*771 FILLER_5_59
*772 FILLER_5_92
*773 FILLER_6_53
*774 FILLER_6_70
*775 FILLER_6_82
*776 FILLER_6_85
*777 FILLER_7_104
*778 FILLER_7_117
*779 FILLER_7_185
*780 FILLER_7_27
*781 FILLER_7_39
*782 FILLER_7_81
*783 FILLER_7_87
*784 FILLER_8_85
*785 FILLER_8_93
*786 FILLER_9_103
*787 FILLER_9_111
*788 FILLER_9_49
*789 FILLER_9_55
*790 FILLER_9_57
*791 FILLER_9_75
*792 PHY_0
*793 PHY_1
*794 PHY_10
*795 PHY_11
*796 PHY_12
*797 PHY_13
*798 PHY_14
*799 PHY_15
*800 PHY_16
*801 PHY_17
*802 PHY_18
*803 PHY_19
*804 PHY_2
*805 PHY_20
*806 PHY_21
*807 PHY_22
*808 PHY_23
*809 PHY_24
*810 PHY_25
*811 PHY_26
*812 PHY_27
*813 PHY_28
*814 PHY_29
*815 PHY_3
*816 PHY_30
*817 PHY_31
*818 PHY_32
*819 PHY_33
*820 PHY_34
*821 PHY_35
*822 PHY_36
*823 PHY_37
*824 PHY_38
*825 PHY_39
*826 PHY_4
*827 PHY_40
*828 PHY_41
*829 PHY_42
*830 PHY_43
*831 PHY_44
*832 PHY_45
*833 PHY_5
*834 PHY_6
*835 PHY_7
*836 PHY_8
*837 PHY_9
*838 TAP_100
*839 TAP_101
*840 TAP_102
*841 TAP_103
*842 TAP_104
*843 TAP_105
*844 TAP_106
*845 TAP_107
*846 TAP_108
*847 TAP_109
*848 TAP_110
*849 TAP_111
*850 TAP_112
*851 TAP_113
*852 TAP_114
*853 TAP_115
*854 TAP_116
*855 TAP_117
*856 TAP_118
*857 TAP_119
*858 TAP_120
*859 TAP_46
*860 TAP_47
*861 TAP_48
*862 TAP_49
*863 TAP_50
*864 TAP_51
*865 TAP_52
*866 TAP_53
*867 TAP_54
*868 TAP_55
*869 TAP_56
*870 TAP_57
*871 TAP_58
*872 TAP_59
*873 TAP_60
*874 TAP_61
*875 TAP_62
*876 TAP_63
*877 TAP_64
*878 TAP_65
*879 TAP_66
*880 TAP_67
*881 TAP_68
*882 TAP_69
*883 TAP_70
*884 TAP_71
*885 TAP_72
*886 TAP_73
*887 TAP_74
*888 TAP_75
*889 TAP_76
*890 TAP_77
*891 TAP_78
*892 TAP_79
*893 TAP_80
*894 TAP_81
*895 TAP_82
*896 TAP_83
*897 TAP_84
*898 TAP_85
*899 TAP_86
*900 TAP_87
*901 TAP_88
*902 TAP_89
*903 TAP_90
*904 TAP_91
*905 TAP_92
*906 TAP_93
*907 TAP_94
*908 TAP_95
*909 TAP_96
*910 TAP_97
*911 TAP_98
*912 TAP_99
*913 _34_
*914 _35_
*915 _36_
*916 _37_
*917 _38_
*918 _39_
*919 _40_
*920 _41_
*921 _42_
*922 _43_
*923 _44_
*924 _45_
*925 _46_
*926 _47_
*927 _48_
*928 _49_
*929 _50_
*930 _51_
*931 _52_
*932 _53_
*933 _54_
*934 _55_
*935 _56_
*936 _57_
*937 _58_
*938 _59_
*939 _60_
*940 _61_
*941 _62_
*942 _63_
*943 _64_
*944 _65_
*945 _66_
*946 _67_
*947 _68_
*948 _69_
*949 _70_
*950 _71_
*951 _72_
*952 _73_
*953 _74_
*954 _75_
*955 _76_
*956 input1
*957 input10
*958 input11
*959 input12
*960 input13
*961 input14
*962 input15
*963 input16
*964 input17
*965 input18
*966 input19
*967 input2
*968 input20
*969 input21
*970 input22
*971 input23
*972 input24
*973 input25
*974 input26
*975 input27
*976 input28
*977 input29
*978 input3
*979 input30
*980 input31
*981 input32
*982 input33
*983 input34
*984 input35
*985 input36
*986 input37
*987 input38
*988 input39
*989 input4
*990 input40
*991 input41
*992 input42
*993 input43
*994 input44
*995 input45
*996 input46
*997 input5
*998 input6
*999 input7
*1000 input8
*1001 input9
*1002 logical_tile_io_mode_io__0\.ltile_phy_iopad_0\.EMBEDDED_IO_HD_0_\.INV_SOC_DIR
*1003 logical_tile_io_mode_io__0\.ltile_phy_iopad_0\.EMBEDDED_IO_HD_0_\.IN_PROTECT_GATE
*1004 logical_tile_io_mode_io__0\.ltile_phy_iopad_0\.EMBEDDED_IO_HD_0_\.ISOL_EN_GATE
*1005 logical_tile_io_mode_io__0\.ltile_phy_iopad_0\.EMBEDDED_IO_HD_0_\.OUT_PROTECT_GATE
*1006 logical_tile_io_mode_io__0\.ltile_phy_iopad_0\.EMBEDDED_IO_HD_sky130_fd_sc_hd__dfxtp_1_mem\.sky130_fd_sc_hd__dfxtp_1_0_
*1007 mem_bottom_ipin_0\.sky130_fd_sc_hd__dfxtp_1_0_
*1008 mem_bottom_ipin_0\.sky130_fd_sc_hd__dfxtp_1_1_
*1009 mem_bottom_ipin_0\.sky130_fd_sc_hd__dfxtp_1_2_
*1010 mem_bottom_ipin_0\.sky130_fd_sc_hd__dfxtp_1_3_
*1011 mem_top_ipin_0\.sky130_fd_sc_hd__dfxtp_1_0_
*1012 mem_top_ipin_0\.sky130_fd_sc_hd__dfxtp_1_1_
*1013 mem_top_ipin_0\.sky130_fd_sc_hd__dfxtp_1_2_
*1014 mem_top_ipin_0\.sky130_fd_sc_hd__dfxtp_1_3_
*1015 mem_top_ipin_1\.sky130_fd_sc_hd__dfxtp_1_0_
*1016 mem_top_ipin_1\.sky130_fd_sc_hd__dfxtp_1_1_
*1017 mem_top_ipin_1\.sky130_fd_sc_hd__dfxtp_1_2_
*1018 mem_top_ipin_1\.sky130_fd_sc_hd__dfxtp_1_3_
*1019 mem_top_ipin_10\.sky130_fd_sc_hd__dfxtp_1_0_
*1020 mem_top_ipin_10\.sky130_fd_sc_hd__dfxtp_1_1_
*1021 mem_top_ipin_10\.sky130_fd_sc_hd__dfxtp_1_2_
*1022 mem_top_ipin_10\.sky130_fd_sc_hd__dfxtp_1_3_
*1023 mem_top_ipin_11\.sky130_fd_sc_hd__dfxtp_1_0_
*1024 mem_top_ipin_11\.sky130_fd_sc_hd__dfxtp_1_1_
*1025 mem_top_ipin_11\.sky130_fd_sc_hd__dfxtp_1_2_
*1026 mem_top_ipin_11\.sky130_fd_sc_hd__dfxtp_1_3_
*1027 mem_top_ipin_12\.sky130_fd_sc_hd__dfxtp_1_0_
*1028 mem_top_ipin_12\.sky130_fd_sc_hd__dfxtp_1_1_
*1029 mem_top_ipin_12\.sky130_fd_sc_hd__dfxtp_1_2_
*1030 mem_top_ipin_12\.sky130_fd_sc_hd__dfxtp_1_3_
*1031 mem_top_ipin_13\.sky130_fd_sc_hd__dfxtp_1_0_
*1032 mem_top_ipin_13\.sky130_fd_sc_hd__dfxtp_1_1_
*1033 mem_top_ipin_13\.sky130_fd_sc_hd__dfxtp_1_2_
*1034 mem_top_ipin_13\.sky130_fd_sc_hd__dfxtp_1_3_
*1035 mem_top_ipin_14\.sky130_fd_sc_hd__dfxtp_1_0_
*1036 mem_top_ipin_14\.sky130_fd_sc_hd__dfxtp_1_1_
*1037 mem_top_ipin_14\.sky130_fd_sc_hd__dfxtp_1_2_
*1038 mem_top_ipin_14\.sky130_fd_sc_hd__dfxtp_1_3_
*1039 mem_top_ipin_15\.sky130_fd_sc_hd__dfxtp_1_0_
*1040 mem_top_ipin_15\.sky130_fd_sc_hd__dfxtp_1_1_
*1041 mem_top_ipin_15\.sky130_fd_sc_hd__dfxtp_1_2_
*1042 mem_top_ipin_15\.sky130_fd_sc_hd__dfxtp_1_3_
*1043 mem_top_ipin_2\.sky130_fd_sc_hd__dfxtp_1_0_
*1044 mem_top_ipin_2\.sky130_fd_sc_hd__dfxtp_1_1_
*1045 mem_top_ipin_2\.sky130_fd_sc_hd__dfxtp_1_2_
*1046 mem_top_ipin_2\.sky130_fd_sc_hd__dfxtp_1_3_
*1047 mem_top_ipin_3\.sky130_fd_sc_hd__dfxtp_1_0_
*1048 mem_top_ipin_3\.sky130_fd_sc_hd__dfxtp_1_1_
*1049 mem_top_ipin_3\.sky130_fd_sc_hd__dfxtp_1_2_
*1050 mem_top_ipin_3\.sky130_fd_sc_hd__dfxtp_1_3_
*1051 mem_top_ipin_4\.sky130_fd_sc_hd__dfxtp_1_0_
*1052 mem_top_ipin_4\.sky130_fd_sc_hd__dfxtp_1_1_
*1053 mem_top_ipin_4\.sky130_fd_sc_hd__dfxtp_1_2_
*1054 mem_top_ipin_4\.sky130_fd_sc_hd__dfxtp_1_3_
*1055 mem_top_ipin_5\.sky130_fd_sc_hd__dfxtp_1_0_
*1056 mem_top_ipin_5\.sky130_fd_sc_hd__dfxtp_1_1_
*1057 mem_top_ipin_5\.sky130_fd_sc_hd__dfxtp_1_2_
*1058 mem_top_ipin_5\.sky130_fd_sc_hd__dfxtp_1_3_
*1059 mem_top_ipin_6\.sky130_fd_sc_hd__dfxtp_1_0_
*1060 mem_top_ipin_6\.sky130_fd_sc_hd__dfxtp_1_1_
*1061 mem_top_ipin_6\.sky130_fd_sc_hd__dfxtp_1_2_
*1062 mem_top_ipin_6\.sky130_fd_sc_hd__dfxtp_1_3_
*1063 mem_top_ipin_7\.sky130_fd_sc_hd__dfxtp_1_0_
*1064 mem_top_ipin_7\.sky130_fd_sc_hd__dfxtp_1_1_
*1065 mem_top_ipin_7\.sky130_fd_sc_hd__dfxtp_1_2_
*1066 mem_top_ipin_7\.sky130_fd_sc_hd__dfxtp_1_3_
*1067 mem_top_ipin_8\.sky130_fd_sc_hd__dfxtp_1_0_
*1068 mem_top_ipin_8\.sky130_fd_sc_hd__dfxtp_1_1_
*1069 mem_top_ipin_8\.sky130_fd_sc_hd__dfxtp_1_2_
*1070 mem_top_ipin_8\.sky130_fd_sc_hd__dfxtp_1_3_
*1071 mem_top_ipin_9\.sky130_fd_sc_hd__dfxtp_1_0_
*1072 mem_top_ipin_9\.sky130_fd_sc_hd__dfxtp_1_1_
*1073 mem_top_ipin_9\.sky130_fd_sc_hd__dfxtp_1_2_
*1074 mem_top_ipin_9\.sky130_fd_sc_hd__dfxtp_1_3_
*1075 mux_bottom_ipin_0\.mux_l1_in_0_
*1076 mux_bottom_ipin_0\.mux_l1_in_1_
*1077 mux_bottom_ipin_0\.mux_l1_in_2_
*1078 mux_bottom_ipin_0\.mux_l2_in_0_
*1079 mux_bottom_ipin_0\.mux_l2_in_1_
*1080 mux_bottom_ipin_0\.mux_l2_in_2_
*1081 mux_bottom_ipin_0\.mux_l2_in_3_
*1082 mux_bottom_ipin_0\.mux_l2_in_3__132
*1083 mux_bottom_ipin_0\.mux_l3_in_0_
*1084 mux_bottom_ipin_0\.mux_l3_in_1_
*1085 mux_bottom_ipin_0\.mux_l4_in_0_
*1086 mux_bottom_ipin_0\.sky130_fd_sc_hd__buf_4_0_