*SPEF "ieee 1481-1999"
*DESIGN "cbx_1__1_"
*DATE "11:11:11 Fri 11 11, 1111"
*VENDOR "OpenRCX"
*PROGRAM "Parallel Extraction"
*VERSION "1.0"
*DESIGN_FLOW "NAME_SCOPE LOCAL" "PIN_CAP NONE"
*DIVIDER /
*DELIMITER :
*BUS_DELIMITER []
*T_UNIT 1 NS
*C_UNIT 1 PF
*R_UNIT 1 OHM
*L_UNIT 1 HENRY

*NAME_MAP
*1 REGIN_FEEDTHROUGH
*2 REGOUT_FEEDTHROUGH
*3 SC_IN_BOT
*4 SC_IN_TOP
*5 SC_OUT_BOT
*6 SC_OUT_TOP
*9 bottom_grid_pin_0_
*10 bottom_grid_pin_10_
*11 bottom_grid_pin_11_
*12 bottom_grid_pin_12_
*13 bottom_grid_pin_13_
*14 bottom_grid_pin_14_
*15 bottom_grid_pin_15_
*16 bottom_grid_pin_1_
*17 bottom_grid_pin_2_
*18 bottom_grid_pin_3_
*19 bottom_grid_pin_4_
*20 bottom_grid_pin_5_
*21 bottom_grid_pin_6_
*22 bottom_grid_pin_7_
*23 bottom_grid_pin_8_
*24 bottom_grid_pin_9_
*25 ccff_head
*26 ccff_tail
*27 chanx_left_in[0]
*28 chanx_left_in[10]
*29 chanx_left_in[11]
*30 chanx_left_in[12]
*31 chanx_left_in[13]
*32 chanx_left_in[14]
*33 chanx_left_in[15]
*34 chanx_left_in[16]
*35 chanx_left_in[17]
*36 chanx_left_in[18]
*37 chanx_left_in[19]
*38 chanx_left_in[1]
*39 chanx_left_in[2]
*40 chanx_left_in[3]
*41 chanx_left_in[4]
*42 chanx_left_in[5]
*43 chanx_left_in[6]
*44 chanx_left_in[7]
*45 chanx_left_in[8]
*46 chanx_left_in[9]
*47 chanx_left_out[0]
*48 chanx_left_out[10]
*49 chanx_left_out[11]
*50 chanx_left_out[12]
*51 chanx_left_out[13]
*52 chanx_left_out[14]
*53 chanx_left_out[15]
*54 chanx_left_out[16]
*55 chanx_left_out[17]
*56 chanx_left_out[18]
*57 chanx_left_out[19]
*58 chanx_left_out[1]
*59 chanx_left_out[2]
*60 chanx_left_out[3]
*61 chanx_left_out[4]
*62 chanx_left_out[5]
*63 chanx_left_out[6]
*64 chanx_left_out[7]
*65 chanx_left_out[8]
*66 chanx_left_out[9]
*67 chanx_right_in[0]
*68 chanx_right_in[10]
*69 chanx_right_in[11]
*70 chanx_right_in[12]
*71 chanx_right_in[13]
*72 chanx_right_in[14]
*73 chanx_right_in[15]
*74 chanx_right_in[16]
*75 chanx_right_in[17]
*76 chanx_right_in[18]
*77 chanx_right_in[19]
*78 chanx_right_in[1]
*79 chanx_right_in[2]
*80 chanx_right_in[3]
*81 chanx_right_in[4]
*82 chanx_right_in[5]
*83 chanx_right_in[6]
*84 chanx_right_in[7]
*85 chanx_right_in[8]
*86 chanx_right_in[9]
*87 chanx_right_out[0]
*88 chanx_right_out[10]
*89 chanx_right_out[11]
*90 chanx_right_out[12]
*91 chanx_right_out[13]
*92 chanx_right_out[14]
*93 chanx_right_out[15]
*94 chanx_right_out[16]
*95 chanx_right_out[17]
*96 chanx_right_out[18]
*97 chanx_right_out[19]
*98 chanx_right_out[1]
*99 chanx_right_out[2]
*100 chanx_right_out[3]
*101 chanx_right_out[4]
*102 chanx_right_out[5]
*103 chanx_right_out[6]
*104 chanx_right_out[7]
*105 chanx_right_out[8]
*106 chanx_right_out[9]
*107 clk_1_N_out
*108 clk_1_S_out
*109 clk_1_W_in
*110 clk_2_E_out
*111 clk_2_W_in
*112 clk_2_W_out
*113 clk_3_E_out
*114 clk_3_W_in
*115 clk_3_W_out
*116 prog_clk_0_N_in
*117 prog_clk_0_W_out
*118 prog_clk_1_N_out
*119 prog_clk_1_S_out
*120 prog_clk_1_W_in
*121 prog_clk_2_E_out
*122 prog_clk_2_W_in
*123 prog_clk_2_W_out
*124 prog_clk_3_E_out
*125 prog_clk_3_W_in
*126 prog_clk_3_W_out
*127 mem_top_ipin_0\.ccff_tail
*128 mem_top_ipin_0\.mem_out\[0\]
*129 mem_top_ipin_0\.mem_out\[1\]
*130 mem_top_ipin_0\.mem_out\[2\]
*131 mem_top_ipin_0\.prog_clk
*132 mem_top_ipin_1\.ccff_tail
*133 mem_top_ipin_1\.mem_out\[0\]
*134 mem_top_ipin_1\.mem_out\[1\]
*135 mem_top_ipin_1\.mem_out\[2\]
*136 mem_top_ipin_10\.ccff_head
*137 mem_top_ipin_10\.ccff_tail
*138 mem_top_ipin_10\.mem_out\[0\]
*139 mem_top_ipin_10\.mem_out\[1\]
*140 mem_top_ipin_10\.mem_out\[2\]
*141 mem_top_ipin_11\.ccff_tail
*142 mem_top_ipin_11\.mem_out\[0\]
*143 mem_top_ipin_11\.mem_out\[1\]
*144 mem_top_ipin_11\.mem_out\[2\]
*145 mem_top_ipin_12\.ccff_tail
*146 mem_top_ipin_12\.mem_out\[0\]
*147 mem_top_ipin_12\.mem_out\[1\]
*148 mem_top_ipin_12\.mem_out\[2\]
*149 mem_top_ipin_13\.ccff_tail
*150 mem_top_ipin_13\.mem_out\[0\]
*151 mem_top_ipin_13\.mem_out\[1\]
*152 mem_top_ipin_13\.mem_out\[2\]
*153 mem_top_ipin_14\.ccff_tail
*154 mem_top_ipin_14\.mem_out\[0\]
*155 mem_top_ipin_14\.mem_out\[1\]
*156 mem_top_ipin_14\.mem_out\[2\]
*157 mem_top_ipin_15\.mem_out\[0\]
*158 mem_top_ipin_15\.mem_out\[1\]
*159 mem_top_ipin_15\.mem_out\[2\]
*160 mem_top_ipin_2\.ccff_tail
*161 mem_top_ipin_2\.mem_out\[0\]
*162 mem_top_ipin_2\.mem_out\[1\]
*163 mem_top_ipin_2\.mem_out\[2\]
*164 mem_top_ipin_3\.ccff_tail
*165 mem_top_ipin_3\.mem_out\[0\]
*166 mem_top_ipin_3\.mem_out\[1\]
*167 mem_top_ipin_3\.mem_out\[2\]
*168 mem_top_ipin_4\.ccff_tail
*169 mem_top_ipin_4\.mem_out\[0\]
*170 mem_top_ipin_4\.mem_out\[1\]
*171 mem_top_ipin_4\.mem_out\[2\]
*172 mem_top_ipin_5\.ccff_tail
*173 mem_top_ipin_5\.mem_out\[0\]
*174 mem_top_ipin_5\.mem_out\[1\]
*175 mem_top_ipin_5\.mem_out\[2\]
*176 mem_top_ipin_6\.ccff_tail
*177 mem_top_ipin_6\.mem_out\[0\]
*178 mem_top_ipin_6\.mem_out\[1\]
*179 mem_top_ipin_6\.mem_out\[2\]
*180 mem_top_ipin_7\.ccff_tail
*181 mem_top_ipin_7\.mem_out\[0\]
*182 mem_top_ipin_7\.mem_out\[1\]
*183 mem_top_ipin_7\.mem_out\[2\]
*184 mem_top_ipin_8\.ccff_tail
*185 mem_top_ipin_8\.mem_out\[0\]
*186 mem_top_ipin_8\.mem_out\[1\]
*187 mem_top_ipin_8\.mem_out\[2\]
*188 mem_top_ipin_9\.mem_out\[0\]
*189 mem_top_ipin_9\.mem_out\[1\]
*190 mem_top_ipin_9\.mem_out\[2\]
*191 mux_top_ipin_0\.sky130_fd_sc_hd__mux2_1_0_X
*192 mux_top_ipin_0\.sky130_fd_sc_hd__mux2_1_1_X
*193 mux_top_ipin_0\.sky130_fd_sc_hd__mux2_1_2_X
*194 mux_top_ipin_0\.sky130_fd_sc_hd__mux2_1_3_X
*195 mux_top_ipin_0\.sky130_fd_sc_hd__mux2_1_4_X
*196 mux_top_ipin_0\.sky130_fd_sc_hd__mux2_1_5_X
*197 mux_top_ipin_0\.sky130_fd_sc_hd__mux2_1_6_X
*198 mux_top_ipin_0\.sky130_fd_sc_hd__mux2_1_7_X
*199 mux_top_ipin_0\.sky130_fd_sc_hd__mux2_1_8_X
*200 mux_top_ipin_0\.sky130_fd_sc_hd__mux2_1_9_X
*201 mux_top_ipin_1\.sky130_fd_sc_hd__mux2_1_0_X
*202 mux_top_ipin_1\.sky130_fd_sc_hd__mux2_1_1_X
*203 mux_top_ipin_1\.sky130_fd_sc_hd__mux2_1_2_X
*204 mux_top_ipin_1\.sky130_fd_sc_hd__mux2_1_3_X
*205 mux_top_ipin_1\.sky130_fd_sc_hd__mux2_1_4_X
*206 mux_top_ipin_1\.sky130_fd_sc_hd__mux2_1_5_X
*207 mux_top_ipin_1\.sky130_fd_sc_hd__mux2_1_6_X
*208 mux_top_ipin_1\.sky130_fd_sc_hd__mux2_1_7_X
*209 mux_top_ipin_10\.sky130_fd_sc_hd__mux2_1_0_X
*210 mux_top_ipin_10\.sky130_fd_sc_hd__mux2_1_1_X
*211 mux_top_ipin_10\.sky130_fd_sc_hd__mux2_1_2_X
*212 mux_top_ipin_10\.sky130_fd_sc_hd__mux2_1_3_X
*213 mux_top_ipin_10\.sky130_fd_sc_hd__mux2_1_4_X
*214 mux_top_ipin_10\.sky130_fd_sc_hd__mux2_1_5_X
*215 mux_top_ipin_10\.sky130_fd_sc_hd__mux2_1_6_X
*216 mux_top_ipin_10\.sky130_fd_sc_hd__mux2_1_7_X
*217 mux_top_ipin_11\.sky130_fd_sc_hd__mux2_1_0_X
*218 mux_top_ipin_11\.sky130_fd_sc_hd__mux2_1_1_X
*219 mux_top_ipin_11\.sky130_fd_sc_hd__mux2_1_2_X
*220 mux_top_ipin_11\.sky130_fd_sc_hd__mux2_1_3_X
*221 mux_top_ipin_11\.sky130_fd_sc_hd__mux2_1_4_X
*222 mux_top_ipin_11\.sky130_fd_sc_hd__mux2_1_5_X
*223 mux_top_ipin_11\.sky130_fd_sc_hd__mux2_1_6_X
*224 mux_top_ipin_11\.sky130_fd_sc_hd__mux2_1_7_X
*225 mux_top_ipin_11\.sky130_fd_sc_hd__mux2_1_8_X
*226 mux_top_ipin_11\.sky130_fd_sc_hd__mux2_1_9_X
*227 mux_top_ipin_12\.sky130_fd_sc_hd__mux2_1_0_X
*228 mux_top_ipin_12\.sky130_fd_sc_hd__mux2_1_1_X
*229 mux_top_ipin_12\.sky130_fd_sc_hd__mux2_1_2_X
*230 mux_top_ipin_12\.sky130_fd_sc_hd__mux2_1_3_X
*231 mux_top_ipin_12\.sky130_fd_sc_hd__mux2_1_4_X
*232 mux_top_ipin_12\.sky130_fd_sc_hd__mux2_1_5_X
*233 mux_top_ipin_12\.sky130_fd_sc_hd__mux2_1_6_X
*234 mux_top_ipin_12\.sky130_fd_sc_hd__mux2_1_7_X
*235 mux_top_ipin_12\.sky130_fd_sc_hd__mux2_1_8_X
*236 mux_top_ipin_12\.sky130_fd_sc_hd__mux2_1_9_X
*237 mux_top_ipin_13\.sky130_fd_sc_hd__mux2_1_0_X
*238 mux_top_ipin_13\.sky130_fd_sc_hd__mux2_1_1_X
*239 mux_top_ipin_13\.sky130_fd_sc_hd__mux2_1_2_X
*240 mux_top_ipin_13\.sky130_fd_sc_hd__mux2_1_3_X
*241 mux_top_ipin_13\.sky130_fd_sc_hd__mux2_1_4_X
*242 mux_top_ipin_13\.sky130_fd_sc_hd__mux2_1_5_X
*243 mux_top_ipin_13\.sky130_fd_sc_hd__mux2_1_6_X
*244 mux_top_ipin_13\.sky130_fd_sc_hd__mux2_1_7_X
*245 mux_top_ipin_14\.sky130_fd_sc_hd__mux2_1_0_X
*246 mux_top_ipin_14\.sky130_fd_sc_hd__mux2_1_1_X
*247 mux_top_ipin_14\.sky130_fd_sc_hd__mux2_1_2_X
*248 mux_top_ipin_14\.sky130_fd_sc_hd__mux2_1_3_X
*249 mux_top_ipin_14\.sky130_fd_sc_hd__mux2_1_4_X
*250 mux_top_ipin_14\.sky130_fd_sc_hd__mux2_1_5_X
*251 mux_top_ipin_14\.sky130_fd_sc_hd__mux2_1_6_X
*252 mux_top_ipin_14\.sky130_fd_sc_hd__mux2_1_7_X
*253 mux_top_ipin_15\.sky130_fd_sc_hd__mux2_1_0_X
*254 mux_top_ipin_15\.sky130_fd_sc_hd__mux2_1_1_X
*255 mux_top_ipin_15\.sky130_fd_sc_hd__mux2_1_2_X
*256 mux_top_ipin_15\.sky130_fd_sc_hd__mux2_1_3_X
*257 mux_top_ipin_15\.sky130_fd_sc_hd__mux2_1_4_X
*258 mux_top_ipin_15\.sky130_fd_sc_hd__mux2_1_5_X
*259 mux_top_ipin_15\.sky130_fd_sc_hd__mux2_1_6_X
*260 mux_top_ipin_15\.sky130_fd_sc_hd__mux2_1_7_X
*261 mux_top_ipin_15\.sky130_fd_sc_hd__mux2_1_8_X
*262 mux_top_ipin_15\.sky130_fd_sc_hd__mux2_1_9_X
*263 mux_top_ipin_2\.sky130_fd_sc_hd__mux2_1_0_X
*264 mux_top_ipin_2\.sky130_fd_sc_hd__mux2_1_1_X
*265 mux_top_ipin_2\.sky130_fd_sc_hd__mux2_1_2_X
*266 mux_top_ipin_2\.sky130_fd_sc_hd__mux2_1_3_X
*267 mux_top_ipin_2\.sky130_fd_sc_hd__mux2_1_4_X
*268 mux_top_ipin_2\.sky130_fd_sc_hd__mux2_1_5_X
*269 mux_top_ipin_2\.sky130_fd_sc_hd__mux2_1_6_X
*270 mux_top_ipin_2\.sky130_fd_sc_hd__mux2_1_7_X
*271 mux_top_ipin_3\.sky130_fd_sc_hd__mux2_1_0_X
*272 mux_top_ipin_3\.sky130_fd_sc_hd__mux2_1_1_X
*273 mux_top_ipin_3\.sky130_fd_sc_hd__mux2_1_2_X
*274 mux_top_ipin_3\.sky130_fd_sc_hd__mux2_1_3_X
*275 mux_top_ipin_3\.sky130_fd_sc_hd__mux2_1_4_X
*276 mux_top_ipin_3\.sky130_fd_sc_hd__mux2_1_5_X
*277 mux_top_ipin_3\.sky130_fd_sc_hd__mux2_1_6_X
*278 mux_top_ipin_3\.sky130_fd_sc_hd__mux2_1_7_X
*279 mux_top_ipin_3\.sky130_fd_sc_hd__mux2_1_8_X
*280 mux_top_ipin_3\.sky130_fd_sc_hd__mux2_1_9_X
*281 mux_top_ipin_4\.sky130_fd_sc_hd__mux2_1_0_X
*282 mux_top_ipin_4\.sky130_fd_sc_hd__mux2_1_1_X
*283 mux_top_ipin_4\.sky130_fd_sc_hd__mux2_1_2_X
*284 mux_top_ipin_4\.sky130_fd_sc_hd__mux2_1_3_X
*285 mux_top_ipin_4\.sky130_fd_sc_hd__mux2_1_4_X
*286 mux_top_ipin_4\.sky130_fd_sc_hd__mux2_1_5_X
*287 mux_top_ipin_4\.sky130_fd_sc_hd__mux2_1_6_X
*288 mux_top_ipin_4\.sky130_fd_sc_hd__mux2_1_7_X
*289 mux_top_ipin_4\.sky130_fd_sc_hd__mux2_1_8_X
*290 mux_top_ipin_4\.sky130_fd_sc_hd__mux2_1_9_X
*291 mux_top_ipin_5\.sky130_fd_sc_hd__mux2_1_0_X
*292 mux_top_ipin_5\.sky130_fd_sc_hd__mux2_1_1_X
*293 mux_top_ipin_5\.sky130_fd_sc_hd__mux2_1_2_X
*294 mux_top_ipin_5\.sky130_fd_sc_hd__mux2_1_3_X
*295 mux_top_ipin_5\.sky130_fd_sc_hd__mux2_1_4_X
*296 mux_top_ipin_5\.sky130_fd_sc_hd__mux2_1_5_X
*297 mux_top_ipin_5\.sky130_fd_sc_hd__mux2_1_6_X
*298 mux_top_ipin_5\.sky130_fd_sc_hd__mux2_1_7_X
*299 mux_top_ipin_6\.sky130_fd_sc_hd__mux2_1_0_X
*300 mux_top_ipin_6\.sky130_fd_sc_hd__mux2_1_1_X
*301 mux_top_ipin_6\.sky130_fd_sc_hd__mux2_1_2_X
*302 mux_top_ipin_6\.sky130_fd_sc_hd__mux2_1_3_X
*303 mux_top_ipin_6\.sky130_fd_sc_hd__mux2_1_4_X
*304 mux_top_ipin_6\.sky130_fd_sc_hd__mux2_1_5_X
*305 mux_top_ipin_6\.sky130_fd_sc_hd__mux2_1_6_X
*306 mux_top_ipin_6\.sky130_fd_sc_hd__mux2_1_7_X
*307 mux_top_ipin_7\.sky130_fd_sc_hd__mux2_1_0_X
*308 mux_top_ipin_7\.sky130_fd_sc_hd__mux2_1_1_X
*309 mux_top_ipin_7\.sky130_fd_sc_hd__mux2_1_2_X
*310 mux_top_ipin_7\.sky130_fd_sc_hd__mux2_1_3_X
*311 mux_top_ipin_7\.sky130_fd_sc_hd__mux2_1_4_X
*312 mux_top_ipin_7\.sky130_fd_sc_hd__mux2_1_5_X
*313 mux_top_ipin_7\.sky130_fd_sc_hd__mux2_1_6_X
*314 mux_top_ipin_7\.sky130_fd_sc_hd__mux2_1_7_X
*315 mux_top_ipin_7\.sky130_fd_sc_hd__mux2_1_8_X
*316 mux_top_ipin_7\.sky130_fd_sc_hd__mux2_1_9_X
*317 mux_top_ipin_8\.sky130_fd_sc_hd__mux2_1_0_X
*318 mux_top_ipin_8\.sky130_fd_sc_hd__mux2_1_1_X
*319 mux_top_ipin_8\.sky130_fd_sc_hd__mux2_1_2_X
*320 mux_top_ipin_8\.sky130_fd_sc_hd__mux2_1_3_X
*321 mux_top_ipin_8\.sky130_fd_sc_hd__mux2_1_4_X
*322 mux_top_ipin_8\.sky130_fd_sc_hd__mux2_1_5_X
*323 mux_top_ipin_8\.sky130_fd_sc_hd__mux2_1_6_X
*324 mux_top_ipin_8\.sky130_fd_sc_hd__mux2_1_7_X
*325 mux_top_ipin_8\.sky130_fd_sc_hd__mux2_1_8_X
*326 mux_top_ipin_8\.sky130_fd_sc_hd__mux2_1_9_X
*327 mux_top_ipin_9\.sky130_fd_sc_hd__mux2_1_0_X
*328 mux_top_ipin_9\.sky130_fd_sc_hd__mux2_1_1_X
*329 mux_top_ipin_9\.sky130_fd_sc_hd__mux2_1_2_X
*330 mux_top_ipin_9\.sky130_fd_sc_hd__mux2_1_3_X
*331 mux_top_ipin_9\.sky130_fd_sc_hd__mux2_1_4_X
*332 mux_top_ipin_9\.sky130_fd_sc_hd__mux2_1_5_X
*333 mux_top_ipin_9\.sky130_fd_sc_hd__mux2_1_6_X
*334 mux_top_ipin_9\.sky130_fd_sc_hd__mux2_1_7_X
*335 net1
*336 net10
*337 net100
*338 net101
*339 net102
*340 net103
*341 net104
*342 net105
*343 net106
*344 net107
*345 net108
*346 net109
*347 net11
*348 net110
*349 net111
*350 net112
*351 net113
*352 net114
*353 net115
*354 net116
*355 net117
*356 net118
*357 net119
*358 net12
*359 net120
*360 net121
*361 net122
*362 net123
*363 net124
*364 net125
*365 net126
*366 net127
*367 net128
*368 net129
*369 net13
*370 net130
*371 net131
*372 net132
*373 net133
*374 net134
*375 net135
*376 net136
*377 net137
*378 net138
*379 net139
*380 net14
*381 net140
*382 net141
*383 net142
*384 net143
*385 net144
*386 net145
*387 net146
*388 net147
*389 net148
*390 net149
*391 net15
*392 net150
*393 net151
*394 net152
*395 net153
*396 net154
*397 net155
*398 net16
*399 net17
*400 net18
*401 net19
*402 net2
*403 net20
*404 net21
*405 net22
*406 net23
*407 net24
*408 net25
*409 net26
*410 net27
*411 net28
*412 net29
*413 net3
*414 net30
*415 net31
*416 net32
*417 net33
*418 net34
*419 net35
*420 net36
*421 net37
*422 net38
*423 net39
*424 net4
*425 net40
*426 net41
*427 net42
*428 net43
*429 net44
*430 net45
*431 net46
*432 net47
*433 net48
*434 net49
*435 net5
*436 net50
*437 net51
*438 net52
*439 net53
*440 net54
*441 net55
*442 net56
*443 net57
*444 net58
*445 net59
*446 net6
*447 net60
*448 net61
*449 net62
*450 net63
*451 net64
*452 net65
*453 net66
*454 net67
*455 net68
*456 net69
*457 net7
*458 net70
*459 net71
*460 net72
*461 net73
*462 net74
*463 net75
*464 net76
*465 net77
*466 net78
*467 net79
*468 net8
*469 net80
*470 net81
*471 net82
*472 net83
*473 net84
*474 net85
*475 net86
*476 net87
*477 net88
*478 net89
*479 net9
*480 net90
*481 net91
*482 net92
*483 net93
*484 net94
*485 net95
*486 net96
*487 net97
*488 net98
*489 net99
*490 ANTENNA__39__A
*491 ANTENNA__40__A
*492 ANTENNA__41__A
*493 ANTENNA__42__A
*494 ANTENNA__43__A
*495 ANTENNA__44__A
*496 ANTENNA__45__A
*497 ANTENNA__46__A
*498 ANTENNA__48__A
*499 ANTENNA__49__A
*500 ANTENNA__50__A
*501 ANTENNA__52__A
*502 ANTENNA__53__A
*503 ANTENNA__61__A
*504 ANTENNA__62__A
*505 ANTENNA__63__A
*506 ANTENNA__64__A
*507 ANTENNA__65__A
*508 ANTENNA__66__A
*509 ANTENNA__68__A
*510 ANTENNA__69__A
*511 ANTENNA__70__A
*512 ANTENNA__71__A
*513 ANTENNA__72__A
*514 ANTENNA__73__A
*515 ANTENNA__74__A
*516 ANTENNA_clk_1_N_FTB01_A
*517 ANTENNA_clk_1_S_FTB01_A
*518 ANTENNA_clk_2_E_FTB01_A
*519 ANTENNA_clk_2_W_FTB01_A
*520 ANTENNA_clk_3_E_FTB01_A
*521 ANTENNA_clk_3_W_FTB01_A
*522 ANTENNA_input10_A
*523 ANTENNA_input11_A
*524 ANTENNA_input12_A
*525 ANTENNA_input13_A
*526 ANTENNA_input14_A
*527 ANTENNA_input15_A
*528 ANTENNA_input16_A
*529 ANTENNA_input17_A
*530 ANTENNA_input18_A
*531 ANTENNA_input19_A
*532 ANTENNA_input1_A
*533 ANTENNA_input20_A
*534 ANTENNA_input21_A
*535 ANTENNA_input22_A
*536 ANTENNA_input23_A
*537 ANTENNA_input24_A
*538 ANTENNA_input25_A
*539 ANTENNA_input26_A
*540 ANTENNA_input27_A
*541 ANTENNA_input28_A
*542 ANTENNA_input29_A
*543 ANTENNA_input2_A
*544 ANTENNA_input30_A
*545 ANTENNA_input31_A
*546 ANTENNA_input32_A
*547 ANTENNA_input33_A
*548 ANTENNA_input34_A
*549 ANTENNA_input35_A
*550 ANTENNA_input36_A
*551 ANTENNA_input37_A
*552 ANTENNA_input38_A
*553 ANTENNA_input39_A
*554 ANTENNA_input3_A
*555 ANTENNA_input40_A
*556 ANTENNA_input41_A
*557 ANTENNA_input42_A
*558 ANTENNA_input43_A
*559 ANTENNA_input44_A
*560 ANTENNA_input45_A
*561 ANTENNA_input46_A
*562 ANTENNA_input47_A
*563 ANTENNA_input48_A
*564 ANTENNA_input49_A
*565 ANTENNA_input4_A
*566 ANTENNA_input50_A
*567 ANTENNA_input5_A
*568 ANTENNA_input6_A
*569 ANTENNA_input7_A
*570 ANTENNA_input8_A
*571 ANTENNA_input9_A
*572 ANTENNA_mem_top_ipin_0\.sky130_fd_sc_hd__dfxtp_1_0__D
*573 ANTENNA_mem_top_ipin_0\.sky130_fd_sc_hd__dfxtp_1_1__D
*574 ANTENNA_mem_top_ipin_0\.sky130_fd_sc_hd__dfxtp_1_3__D
*575 ANTENNA_mem_top_ipin_2\.sky130_fd_sc_hd__dfxtp_1_0__D
*576 ANTENNA_mem_top_ipin_4\.sky130_fd_sc_hd__dfxtp_1_1__D
*577 ANTENNA_mem_top_ipin_5\.sky130_fd_sc_hd__dfxtp_1_2__D
*578 ANTENNA_mux_top_ipin_0\.mux_l1_in_0__S
*579 ANTENNA_mux_top_ipin_0\.mux_l1_in_1__S
*580 ANTENNA_mux_top_ipin_0\.mux_l1_in_2__A0
*581 ANTENNA_mux_top_ipin_0\.mux_l1_in_2__S
*582 ANTENNA_mux_top_ipin_0\.mux_l2_in_1__A0
*583 ANTENNA_mux_top_ipin_0\.mux_l2_in_2__A0
*584 ANTENNA_mux_top_ipin_0\.mux_l2_in_2__A1
*585 ANTENNA_mux_top_ipin_0\.mux_l3_in_0__S
*586 ANTENNA_mux_top_ipin_0\.mux_l3_in_1__S
*587 ANTENNA_mux_top_ipin_1\.mux_l2_in_2__A0
*588 ANTENNA_mux_top_ipin_1\.mux_l2_in_2__A1
*589 ANTENNA_mux_top_ipin_1\.mux_l2_in_3__A1
*590 ANTENNA_mux_top_ipin_1\.mux_l4_in_0__S
*591 ANTENNA_mux_top_ipin_10\.mux_l2_in_1__A0
*592 ANTENNA_mux_top_ipin_10\.mux_l2_in_2__A0
*593 ANTENNA_mux_top_ipin_10\.mux_l2_in_2__A1
*594 ANTENNA_mux_top_ipin_10\.mux_l2_in_3__A1
*595 ANTENNA_mux_top_ipin_11\.mux_l1_in_2__A0
*596 ANTENNA_mux_top_ipin_11\.mux_l2_in_1__A0
*597 ANTENNA_mux_top_ipin_11\.mux_l2_in_2__A0
*598 ANTENNA_mux_top_ipin_11\.mux_l2_in_2__A1
*599 ANTENNA_mux_top_ipin_11\.mux_l2_in_3__A1
*600 ANTENNA_mux_top_ipin_12\.mux_l1_in_2__A0
*601 ANTENNA_mux_top_ipin_12\.mux_l1_in_2__A1
*602 ANTENNA_mux_top_ipin_12\.mux_l2_in_2__A0
*603 ANTENNA_mux_top_ipin_13\.mux_l2_in_1__A0
*604 ANTENNA_mux_top_ipin_13\.mux_l2_in_2__A0
*605 ANTENNA_mux_top_ipin_13\.mux_l2_in_2__A1
*606 ANTENNA_mux_top_ipin_13\.mux_l2_in_3__A1
*607 ANTENNA_mux_top_ipin_14\.mux_l2_in_1__A0
*608 ANTENNA_mux_top_ipin_14\.mux_l2_in_2__A0
*609 ANTENNA_mux_top_ipin_14\.mux_l2_in_2__A1
*610 ANTENNA_mux_top_ipin_14\.mux_l2_in_3__A1
*611 ANTENNA_mux_top_ipin_15\.mux_l1_in_2__A0
*612 ANTENNA_mux_top_ipin_15\.mux_l1_in_2__A1
*613 ANTENNA_mux_top_ipin_15\.mux_l2_in_1__A0
*614 ANTENNA_mux_top_ipin_15\.mux_l2_in_2__A0
*615 ANTENNA_mux_top_ipin_15\.mux_l2_in_2__A1
*616 ANTENNA_mux_top_ipin_2\.mux_l2_in_1__A0
*617 ANTENNA_mux_top_ipin_2\.mux_l2_in_2__A0
*618 ANTENNA_mux_top_ipin_2\.mux_l2_in_2__A1
*619 ANTENNA_mux_top_ipin_2\.mux_l2_in_3__A1
*620 ANTENNA_mux_top_ipin_3\.mux_l1_in_2__A0
*621 ANTENNA_mux_top_ipin_3\.mux_l1_in_2__A1
*622 ANTENNA_mux_top_ipin_3\.mux_l2_in_1__A0
*623 ANTENNA_mux_top_ipin_3\.mux_l2_in_2__A0
*624 ANTENNA_mux_top_ipin_3\.mux_l2_in_2__A1
*625 ANTENNA_mux_top_ipin_4\.mux_l1_in_0__S
*626 ANTENNA_mux_top_ipin_4\.mux_l1_in_1__S
*627 ANTENNA_mux_top_ipin_4\.mux_l1_in_2__A0
*628 ANTENNA_mux_top_ipin_4\.mux_l1_in_2__S
*629 ANTENNA_mux_top_ipin_4\.mux_l2_in_1__A0
*630 ANTENNA_mux_top_ipin_4\.mux_l2_in_2__A0
*631 ANTENNA_mux_top_ipin_4\.mux_l2_in_2__A1
*632 ANTENNA_mux_top_ipin_4\.mux_l2_in_3__A1
*633 ANTENNA_mux_top_ipin_5\.mux_l2_in_0__S
*634 ANTENNA_mux_top_ipin_5\.mux_l2_in_1__A0
*635 ANTENNA_mux_top_ipin_5\.mux_l2_in_1__S
*636 ANTENNA_mux_top_ipin_5\.mux_l2_in_2__A0
*637 ANTENNA_mux_top_ipin_5\.mux_l2_in_2__A1
*638 ANTENNA_mux_top_ipin_5\.mux_l2_in_2__S
*639 ANTENNA_mux_top_ipin_5\.mux_l2_in_3__A1
*640 ANTENNA_mux_top_ipin_5\.mux_l2_in_3__S
*641 ANTENNA_mux_top_ipin_6\.mux_l2_in_1__A0
*642 ANTENNA_mux_top_ipin_6\.mux_l2_in_2__A0
*643 ANTENNA_mux_top_ipin_6\.mux_l2_in_2__A1
*644 ANTENNA_mux_top_ipin_6\.mux_l2_in_3__A1
*645 ANTENNA_mux_top_ipin_7\.mux_l1_in_2__A0
*646 ANTENNA_mux_top_ipin_7\.mux_l1_in_2__A1
*647 ANTENNA_mux_top_ipin_7\.mux_l2_in_1__A0
*648 ANTENNA_mux_top_ipin_7\.mux_l2_in_2__A0
*649 ANTENNA_mux_top_ipin_7\.mux_l2_in_2__A1
*650 ANTENNA_mux_top_ipin_7\.mux_l2_in_3__A1
*651 ANTENNA_mux_top_ipin_8\.mux_l1_in_2__A0
*652 ANTENNA_mux_top_ipin_8\.mux_l1_in_2__A1
*653 ANTENNA_mux_top_ipin_8\.mux_l2_in_2__A0
*654 ANTENNA_mux_top_ipin_8\.mux_l2_in_3__A1
*655 ANTENNA_mux_top_ipin_9\.mux_l2_in_2__A0
*656 ANTENNA_mux_top_ipin_9\.mux_l2_in_2__A1
*657 ANTENNA_mux_top_ipin_9\.mux_l2_in_3__A1
*658 ANTENNA_output52_A
*659 ANTENNA_prog_clk_0_FTB00_A
*660 ANTENNA_prog_clk_0_W_FTB01_A
*661 ANTENNA_prog_clk_1_N_FTB01_A
*662 ANTENNA_prog_clk_1_S_FTB01_A
*663 ANTENNA_prog_clk_2_E_FTB01_A
*664 ANTENNA_prog_clk_2_W_FTB01_A
*665 ANTENNA_prog_clk_3_E_FTB01_A
*666 ANTENNA_prog_clk_3_W_FTB01_A
*667 FILLER_0_100
*668 FILLER_0_105
*669 FILLER_0_111
*670 FILLER_0_117
*671 FILLER_0_123
*672 FILLER_0_145
*673 FILLER_0_150
*674 FILLER_0_169
*675 FILLER_0_177
*676 FILLER_0_19
*677 FILLER_0_27
*678 FILLER_0_35
*679 FILLER_0_42
*680 FILLER_0_46
*681 FILLER_0_51
*682 FILLER_0_55
*683 FILLER_0_61
*684 FILLER_0_69
*685 FILLER_0_73
*686 FILLER_0_78
*687 FILLER_0_89
*688 FILLER_0_96
*689 FILLER_10_114
*690 FILLER_10_136
*691 FILLER_10_150
*692 FILLER_10_185
*693 FILLER_10_38
*694 FILLER_11_125
*695 FILLER_11_169
*696 FILLER_11_27
*697 FILLER_11_59
*698 FILLER_11_79
*699 FILLER_12_117
*700 FILLER_12_189
*701 FILLER_12_44
*702 FILLER_12_67
*703 FILLER_13_167
*704 FILLER_13_52
*705 FILLER_13_66
*706 FILLER_13_90
*707 FILLER_13_94
*708 FILLER_14_114
*709 FILLER_14_141
*710 FILLER_14_25
*711 FILLER_14_29
*712 FILLER_14_64
*713 FILLER_14_85
*714 FILLER_14_97
*715 FILLER_15_113
*716 FILLER_15_121
*717 FILLER_15_17
*718 FILLER_15_66
*719 FILLER_15_74
*720 FILLER_15_91
*721 FILLER_15_95
*722 FILLER_16_101
*723 FILLER_16_105
*724 FILLER_16_31
*725 FILLER_16_45
*726 FILLER_16_57
*727 FILLER_16_69
*728 FILLER_16_81
*729 FILLER_17_110
*730 FILLER_17_115
*731 FILLER_17_167
*732 FILLER_17_185
*733 FILLER_17_54
*734 FILLER_17_57
*735 FILLER_17_65
*736 FILLER_17_98
*737 FILLER_18_137
*738 FILLER_18_157
*739 FILLER_18_175
*740 FILLER_18_55
*741 FILLER_18_67
*742 FILLER_18_79
*743 FILLER_18_83
*744 FILLER_18_85
*745 FILLER_19_108
*746 FILLER_19_185
*747 FILLER_19_53
*748 FILLER_19_57
*749 FILLER_19_69
*750 FILLER_19_75
*751 FILLER_1_106
*752 FILLER_1_119
*753 FILLER_1_146
*754 FILLER_1_152
*755 FILLER_1_31
*756 FILLER_1_43
*757 FILLER_1_49
*758 FILLER_1_55
*759 FILLER_1_57
*760 FILLER_1_63
*761 FILLER_1_70
*762 FILLER_1_82
*763 FILLER_1_94
*764 FILLER_20_40
*765 FILLER_20_49
*766 FILLER_20_61
*767 FILLER_20_67
*768 FILLER_20_85
*769 FILLER_20_97
*770 FILLER_21_129
*771 FILLER_21_185
*772 FILLER_21_50
*773 FILLER_21_57
*774 FILLER_21_61
*775 FILLER_22_105
*776 FILLER_22_129
*777 FILLER_22_143
*778 FILLER_22_185
*779 FILLER_22_27
*780 FILLER_22_50
*781 FILLER_22_61
*782 FILLER_22_73
*783 FILLER_22_81
*784 FILLER_2_110
*785 FILLER_2_122
*786 FILLER_2_141
*787 FILLER_2_160
*788 FILLER_2_27
*789 FILLER_2_36
*790 FILLER_2_48
*791 FILLER_2_63
*792 FILLER_2_69
*793 FILLER_2_76
*794 FILLER_2_85
*795 FILLER_2_97
*796 FILLER_3_106
*797 FILLER_3_116
*798 FILLER_3_169
*799 FILLER_3_38
*800 FILLER_3_50
*801 FILLER_3_61
*802 FILLER_3_77
*803 FILLER_3_80
*804 FILLER_3_94
*805 FILLER_3_98
*806 FILLER_4_113
*807 FILLER_4_119
*808 FILLER_4_177
*809 FILLER_4_41
*810 FILLER_4_45
*811 FILLER_4_83
*812 FILLER_4_85
*813 FILLER_5_101
*814 FILLER_5_111
*815 FILLER_5_155
*816 FILLER_5_38
*817 FILLER_5_7
*818 FILLER_5_82
*819 FILLER_6_38
*820 FILLER_7_167
*821 FILLER_7_3
*822 FILLER_7_57
*823 FILLER_7_98
*824 FILLER_8_139
*825 FILLER_8_141
*826 FILLER_8_62
*827 FILLER_8_83
*828 FILLER_8_88
*829 FILLER_9_125
*830 FILLER_9_57
*831 PHY_0
*832 PHY_1
*833 PHY_10
*834 PHY_11
*835 PHY_12
*836 PHY_13
*837 PHY_14
*838 PHY_15
*839 PHY_16
*840 PHY_17
*841 PHY_18
*842 PHY_19
*843 PHY_2
*844 PHY_20
*845 PHY_21
*846 PHY_22
*847 PHY_23
*848 PHY_24
*849 PHY_25
*850 PHY_26
*851 PHY_27
*852 PHY_28
*853 PHY_29
*854 PHY_3
*855 PHY_30
*856 PHY_31
*857 PHY_32
*858 PHY_33
*859 PHY_34
*860 PHY_35
*861 PHY_36
*862 PHY_37
*863 PHY_38
*864 PHY_39
*865 PHY_4
*866 PHY_40
*867 PHY_41
*868 PHY_42
*869 PHY_43
*870 PHY_44
*871 PHY_45
*872 PHY_5
*873 PHY_6
*874 PHY_7
*875 PHY_8
*876 PHY_9
*877 TAP_100
*878 TAP_101
*879 TAP_102
*880 TAP_103
*881 TAP_104
*882 TAP_105
*883 TAP_106
*884 TAP_107
*885 TAP_108
*886 TAP_109
*887 TAP_110
*888 TAP_111
*889 TAP_112
*890 TAP_113
*891 TAP_114
*892 TAP_115
*893 TAP_116
*894 TAP_117
*895 TAP_118
*896 TAP_119
*897 TAP_120
*898 TAP_46
*899 TAP_47
*900 TAP_48
*901 TAP_49
*902 TAP_50
*903 TAP_51
*904 TAP_52
*905 TAP_53
*906 TAP_54
*907 TAP_55
*908 TAP_56
*909 TAP_57
*910 TAP_58
*911 TAP_59
*912 TAP_60
*913 TAP_61
*914 TAP_62
*915 TAP_63
*916 TAP_64
*917 TAP_65
*918 TAP_66
*919 TAP_67
*920 TAP_68
*921 TAP_69
*922 TAP_70
*923 TAP_71
*924 TAP_72
*925 TAP_73
*926 TAP_74
*927 TAP_75
*928 TAP_76
*929 TAP_77
*930 TAP_78
*931 TAP_79
*932 TAP_80
*933 TAP_81
*934 TAP_82
*935 TAP_83
*936 TAP_84
*937 TAP_85
*938 TAP_86
*939 TAP_87
*940 TAP_88
*941 TAP_89
*942 TAP_90
*943 TAP_91
*944 TAP_92
*945 TAP_93
*946 TAP_94
*947 TAP_95
*948 TAP_96
*949 TAP_97
*950 TAP_98
*951 TAP_99
*952 _32_
*953 _33_
*954 _34_
*955 _35_
*956 _36_
*957 _37_
*958 _38_
*959 _39_
*960 _40_
*961 _41_
*962 _42_
*963 _43_
*964 _44_
*965 _45_
*966 _46_
*967 _47_
*968 _48_
*969 _49_
*970 _50_
*971 _51_
*972 _52_
*973 _53_
*974 _54_
*975 _55_
*976 _56_
*977 _57_
*978 _58_
*979 _59_
*980 _60_
*981 _61_
*982 _62_
*983 _63_
*984 _64_
*985 _65_
*986 _66_
*987 _67_
*988 _68_
*989 _69_
*990 _70_
*991 _71_
*992 _72_
*993 _73_
*994 _74_
*995 clk_1_N_FTB01
*996 clk_1_S_FTB01
*997 clk_2_E_FTB01
*998 clk_2_W_FTB01
*999 clk_3_E_FTB01
*1000 clk_3_W_FTB01
*1001 input1
*1002 input10
*1003 input11
*1004 input12
*1005 input13
*1006 input14
*1007 input15
*1008 input16
*1009 input17
*1010 input18
*1011 input19
*1012 input2
*1013 input20
*1014 input21
*1015 input22
*1016 input23
*1017 input24
*1018 input25
*1019 input26
*1020 input27
*1021 input28
*1022 input29
*1023 input3
*1024 input30
*1025 input31
*1026 input32
*1027 input33
*1028 input34
*1029 input35
*1030 input36
*1031 input37
*1032 input38
*1033 input39
*1034 input4
*1035 input40
*1036 input41
*1037 input42
*1038 input43
*1039 input44
*1040 input45
*1041 input46
*1042 input47
*1043 input48
*1044 input49
*1045 input5
*1046 input50
*1047 input6
*1048 input7
*1049 input8
*1050 input9
*1051 mem_top_ipin_0\.sky130_fd_sc_hd__dfxtp_1_0_
*1052 mem_top_ipin_0\.sky130_fd_sc_hd__dfxtp_1_1_
*1053 mem_top_ipin_0\.sky130_fd_sc_hd__dfxtp_1_2_
*1054 mem_top_ipin_0\.sky130_fd_sc_hd__dfxtp_1_3_
*1055 mem_top_ipin_1\.sky130_fd_sc_hd__dfxtp_1_0_
*1056 mem_top_ipin_1\.sky130_fd_sc_hd__dfxtp_1_1_
*1057 mem_top_ipin_1\.sky130_fd_sc_hd__dfxtp_1_2_
*1058 mem_top_ipin_1\.sky130_fd_sc_hd__dfxtp_1_3_
*1059 mem_top_ipin_10\.sky130_fd_sc_hd__dfxtp_1_0_
*1060 mem_top_ipin_10\.sky130_fd_sc_hd__dfxtp_1_1_
*1061 mem_top_ipin_10\.sky130_fd_sc_hd__dfxtp_1_2_
*1062 mem_top_ipin_10\.sky130_fd_sc_hd__dfxtp_1_3_
*1063 mem_top_ipin_11\.sky130_fd_sc_hd__dfxtp_1_0_
*1064 mem_top_ipin_11\.sky130_fd_sc_hd__dfxtp_1_1_
*1065 mem_top_ipin_11\.sky130_fd_sc_hd__dfxtp_1_2_
*1066 mem_top_ipin_11\.sky130_fd_sc_hd__dfxtp_1_3_
*1067 mem_top_ipin_12\.sky130_fd_sc_hd__dfxtp_1_0_
*1068 mem_top_ipin_12\.sky130_fd_sc_hd__dfxtp_1_1_
*1069 mem_top_ipin_12\.sky130_fd_sc_hd__dfxtp_1_2_
*1070 mem_top_ipin_12\.sky130_fd_sc_hd__dfxtp_1_3_
*1071 mem_top_ipin_13\.sky130_fd_sc_hd__dfxtp_1_0_
*1072 mem_top_ipin_13\.sky130_fd_sc_hd__dfxtp_1_1_
*1073 mem_top_ipin_13\.sky130_fd_sc_hd__dfxtp_1_2_
*1074 mem_top_ipin_13\.sky130_fd_sc_hd__dfxtp_1_3_
*1075 mem_top_ipin_14\.sky130_fd_sc_hd__dfxtp_1_0_
*1076 mem_top_ipin_14\.sky130_fd_sc_hd__dfxtp_1_1_
*1077 mem_top_ipin_14\.sky130_fd_sc_hd__dfxtp_1_2_
*1078 mem_top_ipin_14\.sky130_fd_sc_hd__dfxtp_1_3_
*1079 mem_top_ipin_15\.sky130_fd_sc_hd__dfxtp_1_0_
*1080 mem_top_ipin_15\.sky130_fd_sc_hd__dfxtp_1_1_
*1081 mem_top_ipin_15\.sky130_fd_sc_hd__dfxtp_1_2_
*1082 mem_top_ipin_15\.sky130_fd_sc_hd__dfxtp_1_3_
*1083 mem_top_ipin_2\.sky130_fd_sc_hd__dfxtp_1_0_
*1084 mem_top_ipin_2\.sky130_fd_sc_hd__dfxtp_1_1_
*1085 mem_top_ipin_2\.sky130_fd_sc_hd__dfxtp_1_2_
*1086 mem_top_ipin_2\.sky130_fd_sc_hd__dfxtp_1_3_
*1087 mem_top_ipin_3\.sky130_fd_sc_hd__dfxtp_1_0_
*1088 mem_top_ipin_3\.sky130_fd_sc_hd__dfxtp_1_1_
*1089 mem_top_ipin_3\.sky130_fd_sc_hd__dfxtp_1_2_
*1090 mem_top_ipin_3\.sky130_fd_sc_hd__dfxtp_1_3_
*1091 mem_top_ipin_4\.sky130_fd_sc_hd__dfxtp_1_0_
*1092 mem_top_ipin_4\.sky130_fd_sc_hd__dfxtp_1_1_
*1093 mem_top_ipin_4\.sky130_fd_sc_hd__dfxtp_1_2_
*1094 mem_top_ipin_4\.sky130_fd_sc_hd__dfxtp_1_3_
*1095 mem_top_ipin_5\.sky130_fd_sc_hd__dfxtp_1_0_
*1096 mem_top_ipin_5\.sky130_fd_sc_hd__dfxtp_1_1_
*1097 mem_top_ipin_5\.sky130_fd_sc_hd__dfxtp_1_2_
*1098 mem_top_ipin_5\.sky130_fd_sc_hd__dfxtp_1_3_
*1099 mem_top_ipin_6\.sky130_fd_sc_hd__dfxtp_1_0_
*1100 mem_top_ipin_6\.sky130_fd_sc_hd__dfxtp_1_1_
*1101 mem_top_ipin_6\.sky130_fd_sc_hd__dfxtp_1_2_
*1102 mem_top_ipin_6\.sky130_fd_sc_hd__dfxtp_1_3_
*1103 mem_top_ipin_7\.sky130_fd_sc_hd__dfxtp_1_0_
*1104 mem_top_ipin_7\.sky130_fd_sc_hd__dfxtp_1_1_
*1105 mem_top_ipin_7\.sky130_fd_sc_hd__dfxtp_1_2_
*1106 mem_top_ipin_7\.sky130_fd_sc_hd__dfxtp_1_3_
*1107 mem_top_ipin_8\.sky130_fd_sc_hd__dfxtp_1_0_
*1108 mem_top_ipin_8\.sky130_fd_sc_hd__dfxtp_1_1_
*1109 mem_top_ipin_8\.sky130_fd_sc_hd__dfxtp_1_2_
*1110 mem_top_ipin_8\.sky130_fd_sc_hd__dfxtp_1_3_
*1111 mem_top_ipin_9\.sky130_fd_sc_hd__dfxtp_1_0_
*1112 mem_top_ipin_9\.sky130_fd_sc_hd__dfxtp_1_1_
*1113 mem_top_ipin_9\.sky130_fd_sc_hd__dfxtp_1_2_
*1114 mem_top_ipin_9\.sky130_fd_sc_hd__dfxtp_1_3_
*1115 mux_top_ipin_0\.mux_l1_in_0_
*1116 mux_top_ipin_0\.mux_l1_in_1_
*1117 mux_top_ipin_0\.mux_l1_in_2_
*1118 mux_top_ipin_0\.mux_l2_in_0_
*1119 mux_top_ipin_0\.mux_l2_in_1_
*1120 mux_top_ipin_0\.mux_l2_in_2_
*1121 mux_top_ipin_0\.mux_l2_in_3_
*1122 mux_top_ipin_0\.mux_l2_in_3__145
*1123 mux_top_ipin_0\.mux_l3_in_0_
*1124 mux_top_ipin_0\.mux_l3_in_1_
*1125 mux_top_ipin_0\.mux_l4_in_0_
*1126 mux_top_ipin_0\.sky130_fd_sc_hd__buf_4_0_
*1127 mux_top_ipin_1\.mux_l1_in_0_
*1128 mux_top_ipin_1\.mux_l2_in_0_
*1129 mux_top_ipin_1\.mux_l2_in_1_
*1130 mux_top_ipin_1\.mux_l2_in_2_
*1131 mux_top_ipin_1\.mux_l2_in_3_
*1132 mux_top_ipin_1\.mux_l2_in_3__146
*1133 mux_top_ipin_1\.mux_l3_in_0_
*1134 mux_top_ipin_1\.mux_l3_in_1_
*1135 mux_top_ipin_1\.mux_l4_in_0_
*1136 mux_top_ipin_1\.sky130_fd_sc_hd__buf_4_0_
*1137 mux_top_ipin_10\.mux_l1_in_0_
*1138 mux_top_ipin_10\.mux_l2_in_0_
*1139 mux_top_ipin_10\.mux_l2_in_1_
*1140 mux_top_ipin_10\.mux_l2_in_2_
*1141 mux_top_ipin_10\.mux_l2_in_3_
*1142 mux_top_ipin_10\.mux_l2_in_3__147