*SPEF "ieee 1481-1999"
*DESIGN "cby_2__1_"
*DATE "11:11:11 Fri 11 11, 1111"
*VENDOR "OpenRCX"
*PROGRAM "Parallel Extraction"
*VERSION "1.0"
*DESIGN_FLOW "NAME_SCOPE LOCAL" "PIN_CAP NONE"
*DIVIDER /
*DELIMITER :
*BUS_DELIMITER []
*T_UNIT 1 NS
*C_UNIT 1 PF
*R_UNIT 1 OHM
*L_UNIT 1 HENRY

*NAME_MAP
*1 IO_ISOL_N
*4 ccff_head
*5 ccff_tail
*6 chany_bottom_in[0]
*7 chany_bottom_in[10]
*8 chany_bottom_in[11]
*9 chany_bottom_in[12]
*10 chany_bottom_in[13]
*11 chany_bottom_in[14]
*12 chany_bottom_in[15]
*13 chany_bottom_in[16]
*14 chany_bottom_in[17]
*15 chany_bottom_in[18]
*16 chany_bottom_in[19]
*17 chany_bottom_in[1]
*18 chany_bottom_in[2]
*19 chany_bottom_in[3]
*20 chany_bottom_in[4]
*21 chany_bottom_in[5]
*22 chany_bottom_in[6]
*23 chany_bottom_in[7]
*24 chany_bottom_in[8]
*25 chany_bottom_in[9]
*26 chany_bottom_out[0]
*27 chany_bottom_out[10]
*28 chany_bottom_out[11]
*29 chany_bottom_out[12]
*30 chany_bottom_out[13]
*31 chany_bottom_out[14]
*32 chany_bottom_out[15]
*33 chany_bottom_out[16]
*34 chany_bottom_out[17]
*35 chany_bottom_out[18]
*36 chany_bottom_out[19]
*37 chany_bottom_out[1]
*38 chany_bottom_out[2]
*39 chany_bottom_out[3]
*40 chany_bottom_out[4]
*41 chany_bottom_out[5]
*42 chany_bottom_out[6]
*43 chany_bottom_out[7]
*44 chany_bottom_out[8]
*45 chany_bottom_out[9]
*46 chany_top_in[0]
*47 chany_top_in[10]
*48 chany_top_in[11]
*49 chany_top_in[12]
*50 chany_top_in[13]
*51 chany_top_in[14]
*52 chany_top_in[15]
*53 chany_top_in[16]
*54 chany_top_in[17]
*55 chany_top_in[18]
*56 chany_top_in[19]
*57 chany_top_in[1]
*58 chany_top_in[2]
*59 chany_top_in[3]
*60 chany_top_in[4]
*61 chany_top_in[5]
*62 chany_top_in[6]
*63 chany_top_in[7]
*64 chany_top_in[8]
*65 chany_top_in[9]
*66 chany_top_out[0]
*67 chany_top_out[10]
*68 chany_top_out[11]
*69 chany_top_out[12]
*70 chany_top_out[13]
*71 chany_top_out[14]
*72 chany_top_out[15]
*73 chany_top_out[16]
*74 chany_top_out[17]
*75 chany_top_out[18]
*76 chany_top_out[19]
*77 chany_top_out[1]
*78 chany_top_out[2]
*79 chany_top_out[3]
*80 chany_top_out[4]
*81 chany_top_out[5]
*82 chany_top_out[6]
*83 chany_top_out[7]
*84 chany_top_out[8]
*85 chany_top_out[9]
*86 gfpga_pad_EMBEDDED_IO_HD_SOC_DIR
*87 gfpga_pad_EMBEDDED_IO_HD_SOC_IN
*88 gfpga_pad_EMBEDDED_IO_HD_SOC_OUT
*89 left_grid_pin_16_
*90 left_grid_pin_17_
*91 left_grid_pin_18_
*92 left_grid_pin_19_
*93 left_grid_pin_20_
*94 left_grid_pin_21_
*95 left_grid_pin_22_
*96 left_grid_pin_23_
*97 left_grid_pin_24_
*98 left_grid_pin_25_
*99 left_grid_pin_26_
*100 left_grid_pin_27_
*101 left_grid_pin_28_
*102 left_grid_pin_29_
*103 left_grid_pin_30_
*104 left_grid_pin_31_
*105 left_width_0_height_0__pin_0_
*106 left_width_0_height_0__pin_1_lower
*107 left_width_0_height_0__pin_1_upper
*108 prog_clk_0_N_out
*109 prog_clk_0_S_out
*110 prog_clk_0_W_in
*111 right_grid_pin_0_
*112 logical_tile_io_mode_io__0\.ccff_head
*113 logical_tile_io_mode_io__0\.ltile_phy_iopad_0\.EMBEDDED_IO_HD_0_\.SOC_DIR_N
*114 logical_tile_io_mode_io__0\.ltile_phy_iopad_0\.EMBEDDED_IO_HD_sky130_fd_sc_hd__dfxtp_1_mem\.prog_clk
*115 mem_left_ipin_0\.ccff_tail
*116 mem_left_ipin_0\.mem_out\[0\]
*117 mem_left_ipin_0\.mem_out\[1\]
*118 mem_left_ipin_0\.mem_out\[2\]
*119 mem_right_ipin_0\.ccff_tail
*120 mem_right_ipin_0\.mem_out\[0\]
*121 mem_right_ipin_0\.mem_out\[1\]
*122 mem_right_ipin_0\.mem_out\[2\]
*123 mem_right_ipin_1\.ccff_tail
*124 mem_right_ipin_1\.mem_out\[0\]
*125 mem_right_ipin_1\.mem_out\[1\]
*126 mem_right_ipin_1\.mem_out\[2\]
*127 mem_right_ipin_10\.ccff_head
*128 mem_right_ipin_10\.ccff_tail
*129 mem_right_ipin_10\.mem_out\[0\]
*130 mem_right_ipin_10\.mem_out\[1\]
*131 mem_right_ipin_10\.mem_out\[2\]
*132 mem_right_ipin_11\.ccff_tail
*133 mem_right_ipin_11\.mem_out\[0\]
*134 mem_right_ipin_11\.mem_out\[1\]
*135 mem_right_ipin_11\.mem_out\[2\]
*136 mem_right_ipin_12\.ccff_tail
*137 mem_right_ipin_12\.mem_out\[0\]
*138 mem_right_ipin_12\.mem_out\[1\]
*139 mem_right_ipin_12\.mem_out\[2\]
*140 mem_right_ipin_13\.ccff_tail
*141 mem_right_ipin_13\.mem_out\[0\]
*142 mem_right_ipin_13\.mem_out\[1\]
*143 mem_right_ipin_13\.mem_out\[2\]
*144 mem_right_ipin_14\.ccff_tail
*145 mem_right_ipin_14\.mem_out\[0\]
*146 mem_right_ipin_14\.mem_out\[1\]
*147 mem_right_ipin_14\.mem_out\[2\]
*148 mem_right_ipin_15\.mem_out\[0\]
*149 mem_right_ipin_15\.mem_out\[1\]
*150 mem_right_ipin_15\.mem_out\[2\]
*151 mem_right_ipin_2\.ccff_tail
*152 mem_right_ipin_2\.mem_out\[0\]
*153 mem_right_ipin_2\.mem_out\[1\]
*154 mem_right_ipin_2\.mem_out\[2\]
*155 mem_right_ipin_3\.ccff_tail
*156 mem_right_ipin_3\.mem_out\[0\]
*157 mem_right_ipin_3\.mem_out\[1\]
*158 mem_right_ipin_3\.mem_out\[2\]
*159 mem_right_ipin_4\.ccff_tail
*160 mem_right_ipin_4\.mem_out\[0\]
*161 mem_right_ipin_4\.mem_out\[1\]
*162 mem_right_ipin_4\.mem_out\[2\]
*163 mem_right_ipin_5\.ccff_tail
*164 mem_right_ipin_5\.mem_out\[0\]
*165 mem_right_ipin_5\.mem_out\[1\]
*166 mem_right_ipin_5\.mem_out\[2\]
*167 mem_right_ipin_6\.ccff_tail
*168 mem_right_ipin_6\.mem_out\[0\]
*169 mem_right_ipin_6\.mem_out\[1\]
*170 mem_right_ipin_6\.mem_out\[2\]
*171 mem_right_ipin_7\.ccff_tail
*172 mem_right_ipin_7\.mem_out\[0\]
*173 mem_right_ipin_7\.mem_out\[1\]
*174 mem_right_ipin_7\.mem_out\[2\]
*175 mem_right_ipin_8\.ccff_tail
*176 mem_right_ipin_8\.mem_out\[0\]
*177 mem_right_ipin_8\.mem_out\[1\]
*178 mem_right_ipin_8\.mem_out\[2\]
*179 mem_right_ipin_9\.mem_out\[0\]
*180 mem_right_ipin_9\.mem_out\[1\]
*181 mem_right_ipin_9\.mem_out\[2\]
*182 mux_left_ipin_0\.sky130_fd_sc_hd__mux2_1_0_X
*183 mux_left_ipin_0\.sky130_fd_sc_hd__mux2_1_1_X
*184 mux_left_ipin_0\.sky130_fd_sc_hd__mux2_1_2_X
*185 mux_left_ipin_0\.sky130_fd_sc_hd__mux2_1_3_X
*186 mux_left_ipin_0\.sky130_fd_sc_hd__mux2_1_4_X
*187 mux_left_ipin_0\.sky130_fd_sc_hd__mux2_1_5_X
*188 mux_left_ipin_0\.sky130_fd_sc_hd__mux2_1_6_X
*189 mux_left_ipin_0\.sky130_fd_sc_hd__mux2_1_7_X
*190 mux_left_ipin_0\.sky130_fd_sc_hd__mux2_1_8_X
*191 mux_left_ipin_0\.sky130_fd_sc_hd__mux2_1_9_X
*192 mux_right_ipin_0\.sky130_fd_sc_hd__mux2_1_0_X
*193 mux_right_ipin_0\.sky130_fd_sc_hd__mux2_1_1_X
*194 mux_right_ipin_0\.sky130_fd_sc_hd__mux2_1_2_X
*195 mux_right_ipin_0\.sky130_fd_sc_hd__mux2_1_3_X
*196 mux_right_ipin_0\.sky130_fd_sc_hd__mux2_1_4_X
*197 mux_right_ipin_0\.sky130_fd_sc_hd__mux2_1_5_X
*198 mux_right_ipin_0\.sky130_fd_sc_hd__mux2_1_6_X
*199 mux_right_ipin_0\.sky130_fd_sc_hd__mux2_1_7_X
*200 mux_right_ipin_0\.sky130_fd_sc_hd__mux2_1_8_X
*201 mux_right_ipin_0\.sky130_fd_sc_hd__mux2_1_9_X
*202 mux_right_ipin_1\.sky130_fd_sc_hd__mux2_1_0_X
*203 mux_right_ipin_1\.sky130_fd_sc_hd__mux2_1_1_X
*204 mux_right_ipin_1\.sky130_fd_sc_hd__mux2_1_2_X
*205 mux_right_ipin_1\.sky130_fd_sc_hd__mux2_1_3_X
*206 mux_right_ipin_1\.sky130_fd_sc_hd__mux2_1_4_X
*207 mux_right_ipin_1\.sky130_fd_sc_hd__mux2_1_5_X
*208 mux_right_ipin_1\.sky130_fd_sc_hd__mux2_1_6_X
*209 mux_right_ipin_1\.sky130_fd_sc_hd__mux2_1_7_X
*210 mux_right_ipin_10\.sky130_fd_sc_hd__mux2_1_0_X
*211 mux_right_ipin_10\.sky130_fd_sc_hd__mux2_1_1_X
*212 mux_right_ipin_10\.sky130_fd_sc_hd__mux2_1_2_X
*213 mux_right_ipin_10\.sky130_fd_sc_hd__mux2_1_3_X
*214 mux_right_ipin_10\.sky130_fd_sc_hd__mux2_1_4_X
*215 mux_right_ipin_10\.sky130_fd_sc_hd__mux2_1_5_X
*216 mux_right_ipin_10\.sky130_fd_sc_hd__mux2_1_6_X
*217 mux_right_ipin_10\.sky130_fd_sc_hd__mux2_1_7_X
*218 mux_right_ipin_11\.sky130_fd_sc_hd__mux2_1_0_X
*219 mux_right_ipin_11\.sky130_fd_sc_hd__mux2_1_1_X
*220 mux_right_ipin_11\.sky130_fd_sc_hd__mux2_1_2_X
*221 mux_right_ipin_11\.sky130_fd_sc_hd__mux2_1_3_X
*222 mux_right_ipin_11\.sky130_fd_sc_hd__mux2_1_4_X
*223 mux_right_ipin_11\.sky130_fd_sc_hd__mux2_1_5_X
*224 mux_right_ipin_11\.sky130_fd_sc_hd__mux2_1_6_X
*225 mux_right_ipin_11\.sky130_fd_sc_hd__mux2_1_7_X
*226 mux_right_ipin_11\.sky130_fd_sc_hd__mux2_1_8_X
*227 mux_right_ipin_11\.sky130_fd_sc_hd__mux2_1_9_X
*228 mux_right_ipin_12\.sky130_fd_sc_hd__mux2_1_0_X
*229 mux_right_ipin_12\.sky130_fd_sc_hd__mux2_1_1_X
*230 mux_right_ipin_12\.sky130_fd_sc_hd__mux2_1_2_X
*231 mux_right_ipin_12\.sky130_fd_sc_hd__mux2_1_3_X
*232 mux_right_ipin_12\.sky130_fd_sc_hd__mux2_1_4_X
*233 mux_right_ipin_12\.sky130_fd_sc_hd__mux2_1_5_X
*234 mux_right_ipin_12\.sky130_fd_sc_hd__mux2_1_6_X
*235 mux_right_ipin_12\.sky130_fd_sc_hd__mux2_1_7_X
*236 mux_right_ipin_12\.sky130_fd_sc_hd__mux2_1_8_X
*237 mux_right_ipin_12\.sky130_fd_sc_hd__mux2_1_9_X
*238 mux_right_ipin_13\.sky130_fd_sc_hd__mux2_1_0_X
*239 mux_right_ipin_13\.sky130_fd_sc_hd__mux2_1_1_X
*240 mux_right_ipin_13\.sky130_fd_sc_hd__mux2_1_2_X
*241 mux_right_ipin_13\.sky130_fd_sc_hd__mux2_1_3_X
*242 mux_right_ipin_13\.sky130_fd_sc_hd__mux2_1_4_X
*243 mux_right_ipin_13\.sky130_fd_sc_hd__mux2_1_5_X
*244 mux_right_ipin_13\.sky130_fd_sc_hd__mux2_1_6_X
*245 mux_right_ipin_13\.sky130_fd_sc_hd__mux2_1_7_X
*246 mux_right_ipin_14\.sky130_fd_sc_hd__mux2_1_0_X
*247 mux_right_ipin_14\.sky130_fd_sc_hd__mux2_1_1_X
*248 mux_right_ipin_14\.sky130_fd_sc_hd__mux2_1_2_X
*249 mux_right_ipin_14\.sky130_fd_sc_hd__mux2_1_3_X
*250 mux_right_ipin_14\.sky130_fd_sc_hd__mux2_1_4_X
*251 mux_right_ipin_14\.sky130_fd_sc_hd__mux2_1_5_X
*252 mux_right_ipin_14\.sky130_fd_sc_hd__mux2_1_6_X
*253 mux_right_ipin_14\.sky130_fd_sc_hd__mux2_1_7_X
*254 mux_right_ipin_15\.sky130_fd_sc_hd__mux2_1_0_X
*255 mux_right_ipin_15\.sky130_fd_sc_hd__mux2_1_1_X
*256 mux_right_ipin_15\.sky130_fd_sc_hd__mux2_1_2_X
*257 mux_right_ipin_15\.sky130_fd_sc_hd__mux2_1_3_X
*258 mux_right_ipin_15\.sky130_fd_sc_hd__mux2_1_4_X
*259 mux_right_ipin_15\.sky130_fd_sc_hd__mux2_1_5_X
*260 mux_right_ipin_15\.sky130_fd_sc_hd__mux2_1_6_X
*261 mux_right_ipin_15\.sky130_fd_sc_hd__mux2_1_7_X
*262 mux_right_ipin_15\.sky130_fd_sc_hd__mux2_1_8_X
*263 mux_right_ipin_15\.sky130_fd_sc_hd__mux2_1_9_X
*264 mux_right_ipin_2\.sky130_fd_sc_hd__mux2_1_0_X
*265 mux_right_ipin_2\.sky130_fd_sc_hd__mux2_1_1_X
*266 mux_right_ipin_2\.sky130_fd_sc_hd__mux2_1_2_X
*267 mux_right_ipin_2\.sky130_fd_sc_hd__mux2_1_3_X
*268 mux_right_ipin_2\.sky130_fd_sc_hd__mux2_1_4_X
*269 mux_right_ipin_2\.sky130_fd_sc_hd__mux2_1_5_X
*270 mux_right_ipin_2\.sky130_fd_sc_hd__mux2_1_6_X
*271 mux_right_ipin_2\.sky130_fd_sc_hd__mux2_1_7_X
*272 mux_right_ipin_3\.sky130_fd_sc_hd__mux2_1_0_X
*273 mux_right_ipin_3\.sky130_fd_sc_hd__mux2_1_1_X
*274 mux_right_ipin_3\.sky130_fd_sc_hd__mux2_1_2_X
*275 mux_right_ipin_3\.sky130_fd_sc_hd__mux2_1_3_X
*276 mux_right_ipin_3\.sky130_fd_sc_hd__mux2_1_4_X
*277 mux_right_ipin_3\.sky130_fd_sc_hd__mux2_1_5_X
*278 mux_right_ipin_3\.sky130_fd_sc_hd__mux2_1_6_X
*279 mux_right_ipin_3\.sky130_fd_sc_hd__mux2_1_7_X
*280 mux_right_ipin_3\.sky130_fd_sc_hd__mux2_1_8_X
*281 mux_right_ipin_3\.sky130_fd_sc_hd__mux2_1_9_X
*282 mux_right_ipin_4\.sky130_fd_sc_hd__mux2_1_0_X
*283 mux_right_ipin_4\.sky130_fd_sc_hd__mux2_1_1_X
*284 mux_right_ipin_4\.sky130_fd_sc_hd__mux2_1_2_X
*285 mux_right_ipin_4\.sky130_fd_sc_hd__mux2_1_3_X
*286 mux_right_ipin_4\.sky130_fd_sc_hd__mux2_1_4_X
*287 mux_right_ipin_4\.sky130_fd_sc_hd__mux2_1_5_X
*288 mux_right_ipin_4\.sky130_fd_sc_hd__mux2_1_6_X
*289 mux_right_ipin_4\.sky130_fd_sc_hd__mux2_1_7_X
*290 mux_right_ipin_4\.sky130_fd_sc_hd__mux2_1_8_X
*291 mux_right_ipin_4\.sky130_fd_sc_hd__mux2_1_9_X
*292 mux_right_ipin_5\.sky130_fd_sc_hd__mux2_1_0_X
*293 mux_right_ipin_5\.sky130_fd_sc_hd__mux2_1_1_X
*294 mux_right_ipin_5\.sky130_fd_sc_hd__mux2_1_2_X
*295 mux_right_ipin_5\.sky130_fd_sc_hd__mux2_1_3_X
*296 mux_right_ipin_5\.sky130_fd_sc_hd__mux2_1_4_X
*297 mux_right_ipin_5\.sky130_fd_sc_hd__mux2_1_5_X
*298 mux_right_ipin_5\.sky130_fd_sc_hd__mux2_1_6_X
*299 mux_right_ipin_5\.sky130_fd_sc_hd__mux2_1_7_X
*300 mux_right_ipin_6\.sky130_fd_sc_hd__mux2_1_0_X
*301 mux_right_ipin_6\.sky130_fd_sc_hd__mux2_1_1_X
*302 mux_right_ipin_6\.sky130_fd_sc_hd__mux2_1_2_X
*303 mux_right_ipin_6\.sky130_fd_sc_hd__mux2_1_3_X
*304 mux_right_ipin_6\.sky130_fd_sc_hd__mux2_1_4_X
*305 mux_right_ipin_6\.sky130_fd_sc_hd__mux2_1_5_X
*306 mux_right_ipin_6\.sky130_fd_sc_hd__mux2_1_6_X
*307 mux_right_ipin_6\.sky130_fd_sc_hd__mux2_1_7_X
*308 mux_right_ipin_7\.sky130_fd_sc_hd__mux2_1_0_X
*309 mux_right_ipin_7\.sky130_fd_sc_hd__mux2_1_1_X
*310 mux_right_ipin_7\.sky130_fd_sc_hd__mux2_1_2_X
*311 mux_right_ipin_7\.sky130_fd_sc_hd__mux2_1_3_X
*312 mux_right_ipin_7\.sky130_fd_sc_hd__mux2_1_4_X
*313 mux_right_ipin_7\.sky130_fd_sc_hd__mux2_1_5_X
*314 mux_right_ipin_7\.sky130_fd_sc_hd__mux2_1_6_X
*315 mux_right_ipin_7\.sky130_fd_sc_hd__mux2_1_7_X
*316 mux_right_ipin_7\.sky130_fd_sc_hd__mux2_1_8_X
*317 mux_right_ipin_7\.sky130_fd_sc_hd__mux2_1_9_X
*318 mux_right_ipin_8\.sky130_fd_sc_hd__mux2_1_0_X
*319 mux_right_ipin_8\.sky130_fd_sc_hd__mux2_1_1_X
*320 mux_right_ipin_8\.sky130_fd_sc_hd__mux2_1_2_X
*321 mux_right_ipin_8\.sky130_fd_sc_hd__mux2_1_3_X
*322 mux_right_ipin_8\.sky130_fd_sc_hd__mux2_1_4_X
*323 mux_right_ipin_8\.sky130_fd_sc_hd__mux2_1_5_X
*324 mux_right_ipin_8\.sky130_fd_sc_hd__mux2_1_6_X
*325 mux_right_ipin_8\.sky130_fd_sc_hd__mux2_1_7_X
*326 mux_right_ipin_8\.sky130_fd_sc_hd__mux2_1_8_X
*327 mux_right_ipin_8\.sky130_fd_sc_hd__mux2_1_9_X
*328 mux_right_ipin_9\.sky130_fd_sc_hd__mux2_1_0_X
*329 mux_right_ipin_9\.sky130_fd_sc_hd__mux2_1_1_X
*330 mux_right_ipin_9\.sky130_fd_sc_hd__mux2_1_2_X
*331 mux_right_ipin_9\.sky130_fd_sc_hd__mux2_1_3_X
*332 mux_right_ipin_9\.sky130_fd_sc_hd__mux2_1_4_X
*333 mux_right_ipin_9\.sky130_fd_sc_hd__mux2_1_5_X
*334 mux_right_ipin_9\.sky130_fd_sc_hd__mux2_1_6_X
*335 mux_right_ipin_9\.sky130_fd_sc_hd__mux2_1_7_X
*336 net1
*337 net10
*338 net100
*339 net101
*340 net102
*341 net103
*342 net104
*343 net105
*344 net106
*345 net107
*346 net108
*347 net109
*348 net11
*349 net110
*350 net111
*351 net112
*352 net113
*353 net114
*354 net115
*355 net116
*356 net117
*357 net118
*358 net119
*359 net12
*360 net120
*361 net121
*362 net122
*363 net123
*364 net124
*365 net125
*366 net126
*367 net127
*368 net128
*369 net129
*370 net13
*371 net130
*372 net131
*373 net132
*374 net133
*375 net134
*376 net135
*377 net136
*378 net137
*379 net138
*380 net139
*381 net14
*382 net15
*383 net16
*384 net17
*385 net18
*386 net19
*387 net2
*388 net20
*389 net21
*390 net22
*391 net23
*392 net24
*393 net25
*394 net26
*395 net27
*396 net28
*397 net29
*398 net3
*399 net30
*400 net31
*401 net32
*402 net33
*403 net34
*404 net35
*405 net36
*406 net37
*407 net38
*408 net39
*409 net4
*410 net40
*411 net41
*412 net42
*413 net43
*414 net44
*415 net45
*416 net46
*417 net47
*418 net48
*419 net49
*420 net5
*421 net50
*422 net51
*423 net52
*424 net53
*425 net54
*426 net55
*427 net56
*428 net57
*429 net58
*430 net59
*431 net6
*432 net60
*433 net61
*434 net62
*435 net63
*436 net64
*437 net65
*438 net66
*439 net67
*440 net68
*441 net69
*442 net7
*443 net70
*444 net71
*445 net72
*446 net73
*447 net74
*448 net75
*449 net76
*450 net77
*451 net78
*452 net79
*453 net8
*454 net80
*455 net81
*456 net82
*457 net83
*458 net84
*459 net85
*460 net86
*461 net87
*462 net88
*463 net89
*464 net9
*465 net90
*466 net91
*467 net92
*468 net93
*469 net94
*470 net95
*471 net96
*472 net97
*473 net98
*474 net99
*475 ANTENNA__35__A
*476 ANTENNA__37__A
*477 ANTENNA__38__A
*478 ANTENNA__39__A
*479 ANTENNA__40__A
*480 ANTENNA__41__A
*481 ANTENNA__42__A
*482 ANTENNA__43__A
*483 ANTENNA__44__A
*484 ANTENNA__45__A
*485 ANTENNA__46__A
*486 ANTENNA__48__A
*487 ANTENNA__49__A
*488 ANTENNA__50__A
*489 ANTENNA__52__A
*490 ANTENNA__53__A
*491 ANTENNA__55__A
*492 ANTENNA__57__A
*493 ANTENNA__58__A
*494 ANTENNA__59__A
*495 ANTENNA__60__A
*496 ANTENNA__61__A
*497 ANTENNA__62__A
*498 ANTENNA__63__A
*499 ANTENNA__64__A
*500 ANTENNA__65__A
*501 ANTENNA__66__A
*502 ANTENNA__68__A
*503 ANTENNA__69__A
*504 ANTENNA__70__A
*505 ANTENNA__72__A
*506 ANTENNA__74__A
*507 ANTENNA_input10_A
*508 ANTENNA_input11_A
*509 ANTENNA_input12_A
*510 ANTENNA_input13_A
*511 ANTENNA_input14_A
*512 ANTENNA_input15_A
*513 ANTENNA_input16_A
*514 ANTENNA_input17_A
*515 ANTENNA_input18_A
*516 ANTENNA_input19_A
*517 ANTENNA_input1_A
*518 ANTENNA_input20_A
*519 ANTENNA_input21_A
*520 ANTENNA_input22_A
*521 ANTENNA_input23_A
*522 ANTENNA_input24_A
*523 ANTENNA_input25_A
*524 ANTENNA_input26_A
*525 ANTENNA_input27_A
*526 ANTENNA_input28_A
*527 ANTENNA_input29_A
*528 ANTENNA_input2_A
*529 ANTENNA_input30_A
*530 ANTENNA_input31_A
*531 ANTENNA_input32_A
*532 ANTENNA_input33_A
*533 ANTENNA_input34_A
*534 ANTENNA_input35_A
*535 ANTENNA_input36_A
*536 ANTENNA_input37_A
*537 ANTENNA_input38_A
*538 ANTENNA_input39_A
*539 ANTENNA_input3_A
*540 ANTENNA_input40_A
*541 ANTENNA_input41_A
*542 ANTENNA_input42_A
*543 ANTENNA_input43_A
*544 ANTENNA_input44_A
*545 ANTENNA_input4_A
*546 ANTENNA_input5_A
*547 ANTENNA_input6_A
*548 ANTENNA_input7_A
*549 ANTENNA_input8_A
*550 ANTENNA_input9_A
*551 ANTENNA_logical_tile_io_mode_io__0\.ltile_phy_iopad_0\.EMBEDDED_IO_HD_0_\.ISOL_EN_GATE_A
*552 ANTENNA_logical_tile_io_mode_io__0\.ltile_phy_iopad_0\.EMBEDDED_IO_HD_sky130_fd_sc_hd__dfxtp_1_mem\.sky130_fd_sc_hd__dfxtp_1_0__CLK
*553 ANTENNA_mem_left_ipin_0\.sky130_fd_sc_hd__dfxtp_1_0__CLK
*554 ANTENNA_mem_left_ipin_0\.sky130_fd_sc_hd__dfxtp_1_1__CLK
*555 ANTENNA_mem_left_ipin_0\.sky130_fd_sc_hd__dfxtp_1_2__CLK
*556 ANTENNA_mem_left_ipin_0\.sky130_fd_sc_hd__dfxtp_1_3__CLK
*557 ANTENNA_mem_right_ipin_0\.sky130_fd_sc_hd__dfxtp_1_0__CLK
*558 ANTENNA_mem_right_ipin_0\.sky130_fd_sc_hd__dfxtp_1_1__CLK
*559 ANTENNA_mem_right_ipin_0\.sky130_fd_sc_hd__dfxtp_1_2__CLK
*560 ANTENNA_mem_right_ipin_0\.sky130_fd_sc_hd__dfxtp_1_3__CLK
*561 ANTENNA_mem_right_ipin_1\.sky130_fd_sc_hd__dfxtp_1_0__CLK
*562 ANTENNA_mem_right_ipin_1\.sky130_fd_sc_hd__dfxtp_1_1__CLK
*563 ANTENNA_mem_right_ipin_1\.sky130_fd_sc_hd__dfxtp_1_2__CLK
*564 ANTENNA_mem_right_ipin_1\.sky130_fd_sc_hd__dfxtp_1_3__CLK
*565 ANTENNA_mem_right_ipin_10\.sky130_fd_sc_hd__dfxtp_1_0__CLK
*566 ANTENNA_mem_right_ipin_10\.sky130_fd_sc_hd__dfxtp_1_1__CLK
*567 ANTENNA_mem_right_ipin_10\.sky130_fd_sc_hd__dfxtp_1_2__CLK
*568 ANTENNA_mem_right_ipin_10\.sky130_fd_sc_hd__dfxtp_1_3__CLK
*569 ANTENNA_mem_right_ipin_11\.sky130_fd_sc_hd__dfxtp_1_0__CLK
*570 ANTENNA_mem_right_ipin_11\.sky130_fd_sc_hd__dfxtp_1_1__CLK
*571 ANTENNA_mem_right_ipin_11\.sky130_fd_sc_hd__dfxtp_1_2__CLK
*572 ANTENNA_mem_right_ipin_11\.sky130_fd_sc_hd__dfxtp_1_3__CLK
*573 ANTENNA_mem_right_ipin_12\.sky130_fd_sc_hd__dfxtp_1_0__CLK
*574 ANTENNA_mem_right_ipin_12\.sky130_fd_sc_hd__dfxtp_1_1__CLK
*575 ANTENNA_mem_right_ipin_12\.sky130_fd_sc_hd__dfxtp_1_2__CLK
*576 ANTENNA_mem_right_ipin_12\.sky130_fd_sc_hd__dfxtp_1_3__CLK
*577 ANTENNA_mem_right_ipin_13\.sky130_fd_sc_hd__dfxtp_1_0__CLK
*578 ANTENNA_mem_right_ipin_13\.sky130_fd_sc_hd__dfxtp_1_1__CLK
*579 ANTENNA_mem_right_ipin_13\.sky130_fd_sc_hd__dfxtp_1_2__CLK
*580 ANTENNA_mem_right_ipin_13\.sky130_fd_sc_hd__dfxtp_1_3__CLK
*581 ANTENNA_mem_right_ipin_14\.sky130_fd_sc_hd__dfxtp_1_0__CLK
*582 ANTENNA_mem_right_ipin_14\.sky130_fd_sc_hd__dfxtp_1_1__CLK
*583 ANTENNA_mem_right_ipin_14\.sky130_fd_sc_hd__dfxtp_1_2__CLK
*584 ANTENNA_mem_right_ipin_14\.sky130_fd_sc_hd__dfxtp_1_3__CLK
*585 ANTENNA_mem_right_ipin_15\.sky130_fd_sc_hd__dfxtp_1_0__CLK
*586 ANTENNA_mem_right_ipin_15\.sky130_fd_sc_hd__dfxtp_1_1__CLK
*587 ANTENNA_mem_right_ipin_15\.sky130_fd_sc_hd__dfxtp_1_2__CLK
*588 ANTENNA_mem_right_ipin_15\.sky130_fd_sc_hd__dfxtp_1_3__CLK
*589 ANTENNA_mem_right_ipin_2\.sky130_fd_sc_hd__dfxtp_1_0__CLK
*590 ANTENNA_mem_right_ipin_2\.sky130_fd_sc_hd__dfxtp_1_1__CLK
*591 ANTENNA_mem_right_ipin_2\.sky130_fd_sc_hd__dfxtp_1_2__CLK
*592 ANTENNA_mem_right_ipin_2\.sky130_fd_sc_hd__dfxtp_1_3__CLK
*593 ANTENNA_mem_right_ipin_3\.sky130_fd_sc_hd__dfxtp_1_0__CLK
*594 ANTENNA_mem_right_ipin_3\.sky130_fd_sc_hd__dfxtp_1_1__CLK
*595 ANTENNA_mem_right_ipin_3\.sky130_fd_sc_hd__dfxtp_1_2__CLK
*596 ANTENNA_mem_right_ipin_3\.sky130_fd_sc_hd__dfxtp_1_3__CLK
*597 ANTENNA_mem_right_ipin_4\.sky130_fd_sc_hd__dfxtp_1_0__CLK
*598 ANTENNA_mem_right_ipin_4\.sky130_fd_sc_hd__dfxtp_1_1__CLK
*599 ANTENNA_mem_right_ipin_4\.sky130_fd_sc_hd__dfxtp_1_2__CLK
*600 ANTENNA_mem_right_ipin_4\.sky130_fd_sc_hd__dfxtp_1_3__CLK
*601 ANTENNA_mem_right_ipin_5\.sky130_fd_sc_hd__dfxtp_1_0__CLK
*602 ANTENNA_mem_right_ipin_5\.sky130_fd_sc_hd__dfxtp_1_1__CLK
*603 ANTENNA_mem_right_ipin_5\.sky130_fd_sc_hd__dfxtp_1_2__CLK
*604 ANTENNA_mem_right_ipin_5\.sky130_fd_sc_hd__dfxtp_1_3__CLK
*605 ANTENNA_mem_right_ipin_6\.sky130_fd_sc_hd__dfxtp_1_0__CLK
*606 ANTENNA_mem_right_ipin_6\.sky130_fd_sc_hd__dfxtp_1_1__CLK
*607 ANTENNA_mem_right_ipin_6\.sky130_fd_sc_hd__dfxtp_1_2__CLK
*608 ANTENNA_mem_right_ipin_6\.sky130_fd_sc_hd__dfxtp_1_3__CLK
*609 ANTENNA_mem_right_ipin_7\.sky130_fd_sc_hd__dfxtp_1_0__CLK
*610 ANTENNA_mem_right_ipin_7\.sky130_fd_sc_hd__dfxtp_1_1__CLK
*611 ANTENNA_mem_right_ipin_7\.sky130_fd_sc_hd__dfxtp_1_2__CLK
*612 ANTENNA_mem_right_ipin_7\.sky130_fd_sc_hd__dfxtp_1_3__CLK
*613 ANTENNA_mem_right_ipin_8\.sky130_fd_sc_hd__dfxtp_1_0__CLK
*614 ANTENNA_mem_right_ipin_8\.sky130_fd_sc_hd__dfxtp_1_1__CLK
*615 ANTENNA_mem_right_ipin_8\.sky130_fd_sc_hd__dfxtp_1_2__CLK
*616 ANTENNA_mem_right_ipin_8\.sky130_fd_sc_hd__dfxtp_1_3__CLK
*617 ANTENNA_mem_right_ipin_9\.sky130_fd_sc_hd__dfxtp_1_0__CLK
*618 ANTENNA_mem_right_ipin_9\.sky130_fd_sc_hd__dfxtp_1_1__CLK
*619 ANTENNA_mem_right_ipin_9\.sky130_fd_sc_hd__dfxtp_1_2__CLK
*620 ANTENNA_mem_right_ipin_9\.sky130_fd_sc_hd__dfxtp_1_3__CLK
*621 ANTENNA_mux_left_ipin_0\.mux_l1_in_2__A0
*622 ANTENNA_mux_left_ipin_0\.mux_l1_in_2__A1
*623 ANTENNA_mux_left_ipin_0\.mux_l2_in_1__A0
*624 ANTENNA_mux_left_ipin_0\.mux_l2_in_2__A0
*625 ANTENNA_mux_left_ipin_0\.mux_l2_in_2__A1
*626 ANTENNA_mux_left_ipin_0\.mux_l2_in_3__A1
*627 ANTENNA_mux_right_ipin_0\.mux_l1_in_2__A0
*628 ANTENNA_mux_right_ipin_0\.mux_l1_in_2__A1
*629 ANTENNA_mux_right_ipin_0\.mux_l2_in_1__A0
*630 ANTENNA_mux_right_ipin_0\.mux_l2_in_2__A1
*631 ANTENNA_mux_right_ipin_1\.mux_l2_in_1__A0
*632 ANTENNA_mux_right_ipin_1\.mux_l2_in_2__A0
*633 ANTENNA_mux_right_ipin_1\.mux_l2_in_2__A1
*634 ANTENNA_mux_right_ipin_1\.mux_l2_in_3__A1
*635 ANTENNA_mux_right_ipin_10\.mux_l1_in_0__A0
*636 ANTENNA_mux_right_ipin_10\.mux_l1_in_0__A1
*637 ANTENNA_mux_right_ipin_10\.mux_l2_in_0__A0
*638 ANTENNA_mux_right_ipin_10\.mux_l2_in_1__A0
*639 ANTENNA_mux_right_ipin_10\.mux_l2_in_1__A1
*640 ANTENNA_mux_right_ipin_10\.mux_l2_in_2__A0
*641 ANTENNA_mux_right_ipin_10\.mux_l2_in_2__A1
*642 ANTENNA_mux_right_ipin_10\.mux_l2_in_3__A1
*643 ANTENNA_mux_right_ipin_11\.mux_l1_in_2__A0
*644 ANTENNA_mux_right_ipin_11\.mux_l1_in_2__A1
*645 ANTENNA_mux_right_ipin_11\.mux_l2_in_1__A0
*646 ANTENNA_mux_right_ipin_11\.mux_l2_in_2__A0
*647 ANTENNA_mux_right_ipin_11\.mux_l2_in_2__A1
*648 ANTENNA_mux_right_ipin_11\.mux_l2_in_3__A1
*649 ANTENNA_mux_right_ipin_12\.mux_l1_in_2__A0
*650 ANTENNA_mux_right_ipin_12\.mux_l1_in_2__A1
*651 ANTENNA_mux_right_ipin_13\.mux_l2_in_1__A0
*652 ANTENNA_mux_right_ipin_13\.mux_l2_in_2__A0
*653 ANTENNA_mux_right_ipin_13\.mux_l2_in_2__A1
*654 ANTENNA_mux_right_ipin_13\.mux_l2_in_3__A1
*655 ANTENNA_mux_right_ipin_14\.mux_l2_in_1__A0
*656 ANTENNA_mux_right_ipin_14\.mux_l2_in_2__A1
*657 ANTENNA_mux_right_ipin_14\.mux_l2_in_3__A1
*658 ANTENNA_mux_right_ipin_15\.mux_l1_in_2__A0
*659 ANTENNA_mux_right_ipin_15\.mux_l1_in_2__A1
*660 ANTENNA_mux_right_ipin_15\.mux_l2_in_1__A0
*661 ANTENNA_mux_right_ipin_15\.mux_l2_in_2__A0
*662 ANTENNA_mux_right_ipin_15\.mux_l2_in_2__A1
*663 ANTENNA_mux_right_ipin_15\.mux_l2_in_3__A1
*664 ANTENNA_mux_right_ipin_2\.mux_l1_in_0__A0
*665 ANTENNA_mux_right_ipin_2\.mux_l1_in_0__A1
*666 ANTENNA_mux_right_ipin_2\.mux_l2_in_0__A0
*667 ANTENNA_mux_right_ipin_2\.mux_l2_in_1__A0
*668 ANTENNA_mux_right_ipin_2\.mux_l2_in_1__A1
*669 ANTENNA_mux_right_ipin_2\.mux_l2_in_2__A0
*670 ANTENNA_mux_right_ipin_2\.mux_l2_in_2__A1
*671 ANTENNA_mux_right_ipin_2\.mux_l2_in_3__A1
*672 ANTENNA_mux_right_ipin_3\.mux_l1_in_2__A0
*673 ANTENNA_mux_right_ipin_3\.mux_l1_in_2__A1
*674 ANTENNA_mux_right_ipin_3\.mux_l2_in_1__A0
*675 ANTENNA_mux_right_ipin_3\.mux_l2_in_2__A0
*676 ANTENNA_mux_right_ipin_3\.mux_l2_in_2__A1
*677 ANTENNA_mux_right_ipin_3\.mux_l2_in_3__A1
*678 ANTENNA_mux_right_ipin_4\.mux_l1_in_2__A0
*679 ANTENNA_mux_right_ipin_4\.mux_l1_in_2__A1
*680 ANTENNA_mux_right_ipin_4\.mux_l2_in_1__A0
*681 ANTENNA_mux_right_ipin_4\.mux_l2_in_2__A0
*682 ANTENNA_mux_right_ipin_4\.mux_l2_in_2__A1
*683 ANTENNA_mux_right_ipin_4\.mux_l2_in_3__A1
*684 ANTENNA_mux_right_ipin_5\.mux_l2_in_1__A0
*685 ANTENNA_mux_right_ipin_5\.mux_l2_in_2__A0
*686 ANTENNA_mux_right_ipin_5\.mux_l2_in_2__A1
*687 ANTENNA_mux_right_ipin_5\.mux_l2_in_3__A1
*688 ANTENNA_mux_right_ipin_6\.mux_l2_in_1__A0
*689 ANTENNA_mux_right_ipin_6\.mux_l2_in_2__A1
*690 ANTENNA_mux_right_ipin_6\.mux_l2_in_3__A1
*691 ANTENNA_mux_right_ipin_7\.mux_l1_in_2__A0
*692 ANTENNA_mux_right_ipin_7\.mux_l1_in_2__A1
*693 ANTENNA_mux_right_ipin_7\.mux_l2_in_1__A0
*694 ANTENNA_mux_right_ipin_7\.mux_l2_in_2__A0
*695 ANTENNA_mux_right_ipin_7\.mux_l2_in_2__A1
*696 ANTENNA_mux_right_ipin_7\.mux_l2_in_3__A1
*697 ANTENNA_mux_right_ipin_8\.mux_l1_in_2__A0
*698 ANTENNA_mux_right_ipin_8\.mux_l1_in_2__A1
*699 ANTENNA_mux_right_ipin_8\.mux_l2_in_3__A1
*700 ANTENNA_mux_right_ipin_9\.mux_l2_in_1__A0
*701 ANTENNA_mux_right_ipin_9\.mux_l2_in_2__A0
*702 ANTENNA_mux_right_ipin_9\.mux_l2_in_2__A1
*703 ANTENNA_mux_right_ipin_9\.mux_l2_in_3__A1
*704 ANTENNA_output45_A
*705 ANTENNA_prog_clk_0_FTB00_A
*706 ANTENNA_prog_clk_0_N_FTB01_A
*707 ANTENNA_prog_clk_0_S_FTB01_A
*708 ANTENNA_repeater108_A
*709 ANTENNA_repeater112_A
*710 ANTENNA_repeater118_A
*711 ANTENNA_repeater122_A
*712 FILLER_0_117
*713 FILLER_0_151
*714 FILLER_0_158
*715 FILLER_0_3
*716 FILLER_10_10
*717 FILLER_10_137
*718 FILLER_10_154
*719 FILLER_10_29
*720 FILLER_10_64
*721 FILLER_10_83
*722 FILLER_11_101
*723 FILLER_11_105
*724 FILLER_11_111
*725 FILLER_11_115
*726 FILLER_11_121
*727 FILLER_11_129
*728 FILLER_11_139
*729 FILLER_11_143
*730 FILLER_11_153
*731 FILLER_11_158
*732 FILLER_11_3
*733 FILLER_11_49
*734 FILLER_11_57
*735 FILLER_12_138
*736 FILLER_12_27
*737 FILLER_12_29
*738 FILLER_12_3
*739 FILLER_12_35
*740 FILLER_12_68
*741 FILLER_12_80
*742 FILLER_12_85
*743 FILLER_12_89
*744 FILLER_12_92
*745 FILLER_13_10
*746 FILLER_13_108
*747 FILLER_13_129
*748 FILLER_13_140
*749 FILLER_13_157
*750 FILLER_13_22
*751 FILLER_13_52
*752 FILLER_13_57
*753 FILLER_14_114
*754 FILLER_14_122
*755 FILLER_14_134
*756 FILLER_14_141
*757 FILLER_14_145
*758 FILLER_14_19
*759 FILLER_14_22
*760 FILLER_14_29
*761 FILLER_14_85
*762 FILLER_14_93
*763 FILLER_15_103
*764 FILLER_15_111
*765 FILLER_15_113
*766 FILLER_15_126
*767 FILLER_15_136
*768 FILLER_15_148
*769 FILLER_15_156
*770 FILLER_15_3
*771 FILLER_15_55
*772 FILLER_15_57
*773 FILLER_15_7
*774 FILLER_15_76
*775 FILLER_15_82
*776 FILLER_16_135
*777 FILLER_16_156
*778 FILLER_16_7
*779 FILLER_17_10
*780 FILLER_17_107
*781 FILLER_17_111
*782 FILLER_17_113
*783 FILLER_17_128
*784 FILLER_17_156
*785 FILLER_17_29
*786 FILLER_17_54
*787 FILLER_17_57
*788 FILLER_17_65
*789 FILLER_17_68
*790 FILLER_17_80
*791 FILLER_17_88
*792 FILLER_18_101
*793 FILLER_18_105
*794 FILLER_18_126
*795 FILLER_18_14
*796 FILLER_18_3
*797 FILLER_18_45
*798 FILLER_18_48
*799 FILLER_18_56
*800 FILLER_18_77
*801 FILLER_18_81
*802 FILLER_19_11
*803 FILLER_19_133
*804 FILLER_19_152
*805 FILLER_19_23
*806 FILLER_19_3
*807 FILLER_19_57
*808 FILLER_19_65
*809 FILLER_1_145
*810 FILLER_1_37
*811 FILLER_20_29
*812 FILLER_20_46
*813 FILLER_20_65
*814 FILLER_21_26
*815 FILLER_21_29
*816 FILLER_21_55
*817 FILLER_21_7
*818 FILLER_21_73
*819 FILLER_22_141
*820 FILLER_22_15
*821 FILLER_22_27
*822 FILLER_22_3
*823 FILLER_22_7
*824 FILLER_23_10
*825 FILLER_23_100
*826 FILLER_23_142
*827 FILLER_24_18
*828 FILLER_24_32
*829 FILLER_24_45
*830 FILLER_25_111
*831 FILLER_25_17
*832 FILLER_25_21
*833 FILLER_25_29
*834 FILLER_25_55
*835 FILLER_26_158
*836 FILLER_26_3
*837 FILLER_26_92
*838 FILLER_27_151
*839 FILLER_27_158
*840 FILLER_27_3
*841 FILLER_27_57
*842 FILLER_27_79
*843 FILLER_2_129
*844 FILLER_2_29
*845 FILLER_2_52
*846 FILLER_2_85
*847 FILLER_3_144
*848 FILLER_3_15
*849 FILLER_3_57
*850 FILLER_3_61
*851 FILLER_3_80
*852 FILLER_3_99
*853 FILLER_4_109
*854 FILLER_4_153
*855 FILLER_4_158
*856 FILLER_4_48
*857 FILLER_4_7
*858 FILLER_5_115
*859 FILLER_5_155
*860 FILLER_5_16
*861 FILLER_5_3
*862 FILLER_5_35
*863 FILLER_6_126
*864 FILLER_6_143
*865 FILLER_6_158
*866 FILLER_6_7
*867 FILLER_6_79
*868 FILLER_6_85
*869 FILLER_6_91
*870 FILLER_7_106
*871 FILLER_7_115
*872 FILLER_7_63
*873 FILLER_7_98
*874 FILLER_8_27
*875 FILLER_8_3
*876 FILLER_8_32
*877 FILLER_8_49
*878 FILLER_8_87
*879 FILLER_8_99
*880 FILLER_9_147
*881 FILLER_9_27
*882 FILLER_9_34
*883 FILLER_9_55
*884 FILLER_9_57
*885 FILLER_9_93
*886 PHY_0
*887 PHY_1
*888 PHY_10
*889 PHY_11
*890 PHY_12
*891 PHY_13
*892 PHY_14
*893 PHY_15
*894 PHY_16
*895 PHY_17
*896 PHY_18
*897 PHY_19
*898 PHY_2
*899 PHY_20
*900 PHY_21
*901 PHY_22
*902 PHY_23
*903 PHY_24
*904 PHY_25
*905 PHY_26
*906 PHY_27
*907 PHY_28
*908 PHY_29
*909 PHY_3
*910 PHY_30
*911 PHY_31
*912 PHY_32
*913 PHY_33
*914 PHY_34
*915 PHY_35
*916 PHY_36
*917 PHY_37
*918 PHY_38
*919 PHY_39
*920 PHY_4
*921 PHY_40
*922 PHY_41
*923 PHY_42
*924 PHY_43
*925 PHY_44
*926 PHY_45
*927 PHY_46
*928 PHY_47
*929 PHY_48
*930 PHY_49
*931 PHY_5
*932 PHY_50
*933 PHY_51
*934 PHY_52
*935 PHY_53
*936 PHY_54
*937 PHY_55
*938 PHY_6
*939 PHY_7
*940 PHY_8
*941 PHY_9
*942 TAP_100
*943 TAP_101
*944 TAP_102
*945 TAP_103
*946 TAP_104
*947 TAP_105
*948 TAP_106
*949 TAP_107
*950 TAP_108
*951 TAP_109
*952 TAP_110
*953 TAP_111
*954 TAP_112
*955 TAP_113
*956 TAP_114
*957 TAP_115
*958 TAP_116
*959 TAP_117
*960 TAP_118
*961 TAP_119
*962 TAP_120
*963 TAP_121
*964 TAP_122
*965 TAP_123
*966 TAP_124
*967 TAP_125
*968 TAP_126
*969 TAP_127
*970 TAP_128
*971 TAP_129
*972 TAP_130
*973 TAP_56
*974 TAP_57
*975 TAP_58
*976 TAP_59
*977 TAP_60
*978 TAP_61
*979 TAP_62
*980 TAP_63
*981 TAP_64
*982 TAP_65
*983 TAP_66
*984 TAP_67
*985 TAP_68
*986 TAP_69
*987 TAP_70
*988 TAP_71
*989 TAP_72
*990 TAP_73
*991 TAP_74
*992 TAP_75
*993 TAP_76
*994 TAP_77
*995 TAP_78
*996 TAP_79
*997 TAP_80
*998 TAP_81
*999 TAP_82
*1000 TAP_83
*1001 TAP_84
*1002 TAP_85
*1003 TAP_86
*1004 TAP_87
*1005 TAP_88
*1006 TAP_89
*1007 TAP_90
*1008 TAP_91
*1009 TAP_92
*1010 TAP_93
*1011 TAP_94
*1012 TAP_95
*1013 TAP_96
*1014 TAP_97
*1015 TAP_98
*1016 TAP_99
*1017 _34_
*1018 _35_
*1019 _36_
*1020 _37_