*SPEF "ieee 1481-1999"
*DESIGN "cby_0__1_"
*DATE "11:11:11 Fri 11 11, 1111"
*VENDOR "OpenRCX"
*PROGRAM "Parallel Extraction"
*VERSION "1.0"
*DESIGN_FLOW "NAME_SCOPE LOCAL" "PIN_CAP NONE"
*DIVIDER /
*DELIMITER :
*BUS_DELIMITER []
*T_UNIT 1 NS
*C_UNIT 1 PF
*R_UNIT 1 OHM
*L_UNIT 1 HENRY

*NAME_MAP
*1 IO_ISOL_N
*4 ccff_head
*5 ccff_tail
*6 chany_bottom_in[0]
*7 chany_bottom_in[10]
*8 chany_bottom_in[11]
*9 chany_bottom_in[12]
*10 chany_bottom_in[13]
*11 chany_bottom_in[14]
*12 chany_bottom_in[15]
*13 chany_bottom_in[16]
*14 chany_bottom_in[17]
*15 chany_bottom_in[18]
*16 chany_bottom_in[19]
*17 chany_bottom_in[1]
*18 chany_bottom_in[2]
*19 chany_bottom_in[3]
*20 chany_bottom_in[4]
*21 chany_bottom_in[5]
*22 chany_bottom_in[6]
*23 chany_bottom_in[7]
*24 chany_bottom_in[8]
*25 chany_bottom_in[9]
*26 chany_bottom_out[0]
*27 chany_bottom_out[10]
*28 chany_bottom_out[11]
*29 chany_bottom_out[12]
*30 chany_bottom_out[13]
*31 chany_bottom_out[14]
*32 chany_bottom_out[15]
*33 chany_bottom_out[16]
*34 chany_bottom_out[17]
*35 chany_bottom_out[18]
*36 chany_bottom_out[19]
*37 chany_bottom_out[1]
*38 chany_bottom_out[2]
*39 chany_bottom_out[3]
*40 chany_bottom_out[4]
*41 chany_bottom_out[5]
*42 chany_bottom_out[6]
*43 chany_bottom_out[7]
*44 chany_bottom_out[8]
*45 chany_bottom_out[9]
*46 chany_top_in[0]
*47 chany_top_in[10]
*48 chany_top_in[11]
*49 chany_top_in[12]
*50 chany_top_in[13]
*51 chany_top_in[14]
*52 chany_top_in[15]
*53 chany_top_in[16]
*54 chany_top_in[17]
*55 chany_top_in[18]
*56 chany_top_in[19]
*57 chany_top_in[1]
*58 chany_top_in[2]
*59 chany_top_in[3]
*60 chany_top_in[4]
*61 chany_top_in[5]
*62 chany_top_in[6]
*63 chany_top_in[7]
*64 chany_top_in[8]
*65 chany_top_in[9]
*66 chany_top_out[0]
*67 chany_top_out[10]
*68 chany_top_out[11]
*69 chany_top_out[12]
*70 chany_top_out[13]
*71 chany_top_out[14]
*72 chany_top_out[15]
*73 chany_top_out[16]
*74 chany_top_out[17]
*75 chany_top_out[18]
*76 chany_top_out[19]
*77 chany_top_out[1]
*78 chany_top_out[2]
*79 chany_top_out[3]
*80 chany_top_out[4]
*81 chany_top_out[5]
*82 chany_top_out[6]
*83 chany_top_out[7]
*84 chany_top_out[8]
*85 chany_top_out[9]
*86 gfpga_pad_EMBEDDED_IO_HD_SOC_DIR
*87 gfpga_pad_EMBEDDED_IO_HD_SOC_IN
*88 gfpga_pad_EMBEDDED_IO_HD_SOC_OUT
*89 left_grid_pin_0_
*90 prog_clk_0_E_in
*91 right_width_0_height_0__pin_0_
*92 right_width_0_height_0__pin_1_lower
*93 right_width_0_height_0__pin_1_upper
*94 logical_tile_io_mode_io__0\.ccff_head
*95 logical_tile_io_mode_io__0\.ltile_phy_iopad_0\.EMBEDDED_IO_HD_0_\.SOC_DIR_N
*96 logical_tile_io_mode_io__0\.ltile_phy_iopad_0\.EMBEDDED_IO_HD_sky130_fd_sc_hd__dfxtp_1_mem\.prog_clk
*97 mem_right_ipin_0\.mem_out\[0\]
*98 mem_right_ipin_0\.mem_out\[1\]
*99 mem_right_ipin_0\.mem_out\[2\]
*100 mux_right_ipin_0\.sky130_fd_sc_hd__mux2_1_0_X
*101 mux_right_ipin_0\.sky130_fd_sc_hd__mux2_1_1_X
*102 mux_right_ipin_0\.sky130_fd_sc_hd__mux2_1_2_X
*103 mux_right_ipin_0\.sky130_fd_sc_hd__mux2_1_3_X
*104 mux_right_ipin_0\.sky130_fd_sc_hd__mux2_1_4_X
*105 mux_right_ipin_0\.sky130_fd_sc_hd__mux2_1_5_X
*106 mux_right_ipin_0\.sky130_fd_sc_hd__mux2_1_6_X
*107 mux_right_ipin_0\.sky130_fd_sc_hd__mux2_1_7_X
*108 mux_right_ipin_0\.sky130_fd_sc_hd__mux2_1_8_X
*109 mux_right_ipin_0\.sky130_fd_sc_hd__mux2_1_9_X
*110 net1
*111 net10
*112 net11
*113 net12
*114 net13
*115 net14
*116 net15
*117 net16
*118 net17
*119 net18
*120 net19
*121 net2
*122 net20
*123 net21
*124 net22
*125 net23
*126 net24
*127 net25
*128 net26
*129 net27
*130 net28
*131 net29
*132 net3
*133 net30
*134 net31
*135 net32
*136 net33
*137 net34
*138 net35
*139 net36
*140 net37
*141 net38
*142 net39
*143 net4
*144 net40
*145 net41
*146 net42
*147 net43
*148 net44
*149 net45
*150 net46
*151 net47
*152 net48
*153 net49
*154 net5
*155 net50
*156 net51
*157 net52
*158 net53
*159 net54
*160 net55
*161 net56
*162 net57
*163 net58
*164 net59
*165 net6
*166 net60
*167 net61
*168 net62
*169 net63
*170 net64
*171 net65
*172 net66
*173 net67
*174 net68
*175 net69
*176 net7
*177 net70
*178 net71
*179 net72
*180 net73
*181 net74
*182 net75
*183 net76
*184 net77
*185 net78
*186 net79
*187 net8
*188 net80
*189 net81
*190 net82
*191 net83
*192 net84
*193 net85
*194 net86
*195 net87
*196 net88
*197 net89
*198 net9
*199 net90
*200 ANTENNA__21__A
*201 ANTENNA_input10_A
*202 ANTENNA_input11_A
*203 ANTENNA_input12_A
*204 ANTENNA_input13_A
*205 ANTENNA_input14_A
*206 ANTENNA_input15_A
*207 ANTENNA_input16_A
*208 ANTENNA_input17_A
*209 ANTENNA_input18_A
*210 ANTENNA_input19_A
*211 ANTENNA_input1_A
*212 ANTENNA_input20_A
*213 ANTENNA_input21_A
*214 ANTENNA_input22_A
*215 ANTENNA_input23_A
*216 ANTENNA_input24_A
*217 ANTENNA_input25_A
*218 ANTENNA_input26_A
*219 ANTENNA_input27_A
*220 ANTENNA_input28_A
*221 ANTENNA_input29_A
*222 ANTENNA_input2_A
*223 ANTENNA_input30_A
*224 ANTENNA_input31_A
*225 ANTENNA_input32_A
*226 ANTENNA_input33_A
*227 ANTENNA_input34_A
*228 ANTENNA_input35_A
*229 ANTENNA_input36_A
*230 ANTENNA_input37_A
*231 ANTENNA_input38_A
*232 ANTENNA_input39_A
*233 ANTENNA_input3_A
*234 ANTENNA_input40_A
*235 ANTENNA_input41_A
*236 ANTENNA_input42_A
*237 ANTENNA_input43_A
*238 ANTENNA_input44_A
*239 ANTENNA_input4_A
*240 ANTENNA_input5_A
*241 ANTENNA_input6_A
*242 ANTENNA_input7_A
*243 ANTENNA_input8_A
*244 ANTENNA_input9_A
*245 ANTENNA_prog_clk_0_FTB00_A
*246 FILLER_0_103
*247 FILLER_0_107
*248 FILLER_0_111
*249 FILLER_0_119
*250 FILLER_0_123
*251 FILLER_0_127
*252 FILLER_0_131
*253 FILLER_0_135
*254 FILLER_0_139
*255 FILLER_0_147
*256 FILLER_0_151
*257 FILLER_0_155
*258 FILLER_0_29
*259 FILLER_0_3
*260 FILLER_0_57
*261 FILLER_0_91
*262 FILLER_0_95
*263 FILLER_0_99
*264 FILLER_10_109
*265 FILLER_10_121
*266 FILLER_10_133
*267 FILLER_10_139
*268 FILLER_10_141
*269 FILLER_10_15
*270 FILLER_10_153
*271 FILLER_10_27
*272 FILLER_10_29
*273 FILLER_10_3
*274 FILLER_10_41
*275 FILLER_10_53
*276 FILLER_10_65
*277 FILLER_10_77
*278 FILLER_10_83
*279 FILLER_10_85
*280 FILLER_10_97
*281 FILLER_11_108
*282 FILLER_11_127
*283 FILLER_11_139
*284 FILLER_11_151
*285 FILLER_11_19
*286 FILLER_11_31
*287 FILLER_11_43
*288 FILLER_11_55
*289 FILLER_11_57
*290 FILLER_11_7
*291 FILLER_11_74
*292 FILLER_11_84
*293 FILLER_11_96
*294 FILLER_12_100
*295 FILLER_12_112
*296 FILLER_12_124
*297 FILLER_12_136
*298 FILLER_12_141
*299 FILLER_12_15
*300 FILLER_12_153
*301 FILLER_12_27
*302 FILLER_12_29
*303 FILLER_12_3
*304 FILLER_12_41
*305 FILLER_12_53
*306 FILLER_12_61
*307 FILLER_12_82
*308 FILLER_12_88
*309 FILLER_13_100
*310 FILLER_13_104
*311 FILLER_13_108
*312 FILLER_13_113
*313 FILLER_13_125
*314 FILLER_13_137
*315 FILLER_13_149
*316 FILLER_13_157
*317 FILLER_13_24
*318 FILLER_13_36
*319 FILLER_13_47
*320 FILLER_13_91
*321 FILLER_13_95
*322 FILLER_14_134
*323 FILLER_14_141
*324 FILLER_14_15
*325 FILLER_14_153
*326 FILLER_14_27
*327 FILLER_14_29
*328 FILLER_14_3
*329 FILLER_14_37
*330 FILLER_14_73
*331 FILLER_14_85
*332 FILLER_15_110
*333 FILLER_15_113
*334 FILLER_15_125
*335 FILLER_15_137
*336 FILLER_15_149
*337 FILLER_15_15
*338 FILLER_15_157
*339 FILLER_15_23
*340 FILLER_15_28
*341 FILLER_15_3
*342 FILLER_15_40
*343 FILLER_15_48
*344 FILLER_15_91
*345 FILLER_15_98
*346 FILLER_16_106
*347 FILLER_16_118
*348 FILLER_16_130
*349 FILLER_16_138
*350 FILLER_16_141
*351 FILLER_16_15
*352 FILLER_16_153
*353 FILLER_16_27
*354 FILLER_16_29
*355 FILLER_16_3
*356 FILLER_16_41
*357 FILLER_16_53
*358 FILLER_16_61
*359 FILLER_16_94
*360 FILLER_17_108
*361 FILLER_17_113
*362 FILLER_17_125
*363 FILLER_17_137
*364 FILLER_17_149
*365 FILLER_17_157
*366 FILLER_17_20
*367 FILLER_17_32
*368 FILLER_17_44
*369 FILLER_17_57
*370 FILLER_17_65
*371 FILLER_17_69
*372 FILLER_17_8
*373 FILLER_17_84
*374 FILLER_17_96
*375 FILLER_18_104
*376 FILLER_18_116
*377 FILLER_18_128
*378 FILLER_18_141
*379 FILLER_18_15
*380 FILLER_18_153
*381 FILLER_18_27
*382 FILLER_18_29
*383 FILLER_18_3
*384 FILLER_18_41
*385 FILLER_18_46
*386 FILLER_18_58
*387 FILLER_18_66
*388 FILLER_18_71
*389 FILLER_18_83
*390 FILLER_18_85
*391 FILLER_18_92
*392 FILLER_19_105
*393 FILLER_19_111
*394 FILLER_19_113
*395 FILLER_19_125
*396 FILLER_19_137
*397 FILLER_19_146
*398 FILLER_19_15
*399 FILLER_19_154
*400 FILLER_19_27
*401 FILLER_19_3
*402 FILLER_19_31
*403 FILLER_19_54
*404 FILLER_19_57
*405 FILLER_19_69
*406 FILLER_19_81
*407 FILLER_19_93
*408 FILLER_1_100
*409 FILLER_1_104
*410 FILLER_1_108
*411 FILLER_1_117
*412 FILLER_1_120
*413 FILLER_1_124
*414 FILLER_1_128
*415 FILLER_1_13
*416 FILLER_1_132
*417 FILLER_1_136
*418 FILLER_1_141
*419 FILLER_1_144
*420 FILLER_1_148
*421 FILLER_1_25
*422 FILLER_1_3
*423 FILLER_1_31
*424 FILLER_1_36
*425 FILLER_1_48
*426 FILLER_1_57
*427 FILLER_1_69
*428 FILLER_1_81
*429 FILLER_1_85
*430 FILLER_1_88
*431 FILLER_1_92
*432 FILLER_1_96
*433 FILLER_20_109
*434 FILLER_20_121
*435 FILLER_20_133
*436 FILLER_20_139
*437 FILLER_20_141
*438 FILLER_20_15
*439 FILLER_20_153
*440 FILLER_20_27
*441 FILLER_20_29
*442 FILLER_20_3
*443 FILLER_20_41
*444 FILLER_20_53
*445 FILLER_20_65
*446 FILLER_20_77
*447 FILLER_20_83
*448 FILLER_20_85
*449 FILLER_20_97
*450 FILLER_21_105
*451 FILLER_21_111
*452 FILLER_21_113
*453 FILLER_21_125
*454 FILLER_21_137
*455 FILLER_21_149
*456 FILLER_21_15
*457 FILLER_21_157
*458 FILLER_21_27
*459 FILLER_21_3
*460 FILLER_21_35
*461 FILLER_21_44
*462 FILLER_21_57
*463 FILLER_21_69
*464 FILLER_21_81
*465 FILLER_21_93
*466 FILLER_22_109
*467 FILLER_22_121
*468 FILLER_22_133
*469 FILLER_22_139
*470 FILLER_22_141
*471 FILLER_22_15
*472 FILLER_22_153
*473 FILLER_22_27
*474 FILLER_22_29
*475 FILLER_22_3
*476 FILLER_22_41
*477 FILLER_22_53
*478 FILLER_22_65
*479 FILLER_22_77
*480 FILLER_22_83
*481 FILLER_22_85
*482 FILLER_22_97
*483 FILLER_23_105
*484 FILLER_23_111
*485 FILLER_23_113
*486 FILLER_23_125
*487 FILLER_23_137
*488 FILLER_23_149
*489 FILLER_23_15
*490 FILLER_23_157
*491 FILLER_23_27
*492 FILLER_23_3
*493 FILLER_23_39
*494 FILLER_23_51
*495 FILLER_23_55
*496 FILLER_23_57
*497 FILLER_23_69
*498 FILLER_23_81
*499 FILLER_23_93
*500 FILLER_24_109
*501 FILLER_24_121
*502 FILLER_24_133
*503 FILLER_24_139
*504 FILLER_24_141
*505 FILLER_24_15
*506 FILLER_24_153
*507 FILLER_24_27
*508 FILLER_24_29
*509 FILLER_24_3
*510 FILLER_24_41
*511 FILLER_24_53
*512 FILLER_24_65
*513 FILLER_24_77
*514 FILLER_24_83
*515 FILLER_24_85
*516 FILLER_24_97
*517 FILLER_25_105
*518 FILLER_25_111
*519 FILLER_25_113
*520 FILLER_25_125
*521 FILLER_25_137
*522 FILLER_25_149
*523 FILLER_25_153
*524 FILLER_25_17
*525 FILLER_25_29
*526 FILLER_25_41
*527 FILLER_25_5
*528 FILLER_25_53
*529 FILLER_25_57
*530 FILLER_25_69
*531 FILLER_25_81
*532 FILLER_25_93
*533 FILLER_26_106
*534 FILLER_26_11
*535 FILLER_26_110
*536 FILLER_26_113
*537 FILLER_26_116
*538 FILLER_26_119
*539 FILLER_26_122
*540 FILLER_26_126
*541 FILLER_26_134
*542 FILLER_26_145
*543 FILLER_26_150
*544 FILLER_26_23
*545 FILLER_26_27
*546 FILLER_26_29
*547 FILLER_26_34
*548 FILLER_26_46
*549 FILLER_26_58
*550 FILLER_26_70
*551 FILLER_26_82
*552 FILLER_26_85
*553 FILLER_26_91
*554 FILLER_26_94
*555 FILLER_26_98
*556 FILLER_27_101
*557 FILLER_27_105
*558 FILLER_27_111
*559 FILLER_27_125
*560 FILLER_27_129
*561 FILLER_27_133
*562 FILLER_27_139
*563 FILLER_27_29
*564 FILLER_27_3
*565 FILLER_27_57
*566 FILLER_27_89
*567 FILLER_27_93
*568 FILLER_27_97
*569 FILLER_2_109
*570 FILLER_2_121
*571 FILLER_2_133
*572 FILLER_2_139
*573 FILLER_2_141
*574 FILLER_2_15
*575 FILLER_2_153
*576 FILLER_2_27
*577 FILLER_2_29
*578 FILLER_2_3
*579 FILLER_2_41
*580 FILLER_2_53
*581 FILLER_2_65
*582 FILLER_2_77
*583 FILLER_2_83
*584 FILLER_2_85
*585 FILLER_2_97
*586 FILLER_3_105
*587 FILLER_3_111
*588 FILLER_3_113
*589 FILLER_3_125
*590 FILLER_3_137
*591 FILLER_3_149
*592 FILLER_3_15
*593 FILLER_3_157
*594 FILLER_3_27
*595 FILLER_3_3
*596 FILLER_3_39
*597 FILLER_3_51
*598 FILLER_3_55
*599 FILLER_3_57
*600 FILLER_3_69
*601 FILLER_3_81
*602 FILLER_3_93
*603 FILLER_4_109
*604 FILLER_4_121
*605 FILLER_4_133
*606 FILLER_4_139
*607 FILLER_4_141
*608 FILLER_4_15
*609 FILLER_4_153
*610 FILLER_4_27
*611 FILLER_4_29
*612 FILLER_4_3
*613 FILLER_4_41
*614 FILLER_4_53
*615 FILLER_4_65
*616 FILLER_4_77
*617 FILLER_4_83
*618 FILLER_4_85
*619 FILLER_4_97
*620 FILLER_5_105
*621 FILLER_5_111
*622 FILLER_5_113
*623 FILLER_5_125
*624 FILLER_5_137
*625 FILLER_5_149
*626 FILLER_5_157
*627 FILLER_5_19
*628 FILLER_5_31
*629 FILLER_5_43
*630 FILLER_5_55
*631 FILLER_5_57
*632 FILLER_5_69
*633 FILLER_5_7
*634 FILLER_5_81
*635 FILLER_5_93
*636 FILLER_6_109
*637 FILLER_6_121
*638 FILLER_6_133
*639 FILLER_6_139
*640 FILLER_6_141
*641 FILLER_6_15
*642 FILLER_6_153
*643 FILLER_6_27
*644 FILLER_6_29
*645 FILLER_6_3
*646 FILLER_6_41
*647 FILLER_6_53
*648 FILLER_6_65
*649 FILLER_6_77
*650 FILLER_6_83
*651 FILLER_6_85
*652 FILLER_6_97
*653 FILLER_7_105
*654 FILLER_7_111
*655 FILLER_7_113
*656 FILLER_7_125
*657 FILLER_7_137
*658 FILLER_7_149
*659 FILLER_7_15
*660 FILLER_7_157
*661 FILLER_7_27
*662 FILLER_7_3
*663 FILLER_7_39
*664 FILLER_7_51
*665 FILLER_7_55
*666 FILLER_7_57
*667 FILLER_7_69
*668 FILLER_7_81
*669 FILLER_7_93
*670 FILLER_8_109
*671 FILLER_8_121
*672 FILLER_8_133
*673 FILLER_8_139
*674 FILLER_8_141
*675 FILLER_8_15
*676 FILLER_8_153
*677 FILLER_8_27
*678 FILLER_8_29
*679 FILLER_8_3
*680 FILLER_8_41
*681 FILLER_8_53
*682 FILLER_8_65
*683 FILLER_8_77
*684 FILLER_8_83
*685 FILLER_8_85
*686 FILLER_8_97
*687 FILLER_9_103
*688 FILLER_9_111
*689 FILLER_9_113
*690 FILLER_9_125
*691 FILLER_9_137
*692 FILLER_9_149
*693 FILLER_9_15
*694 FILLER_9_157
*695 FILLER_9_24
*696 FILLER_9_3
*697 FILLER_9_36
*698 FILLER_9_40
*699 FILLER_9_46
*700 FILLER_9_52
*701 FILLER_9_57
*702 FILLER_9_65
*703 FILLER_9_71
*704 FILLER_9_83
*705 FILLER_9_87
*706 FILLER_9_91
*707 PHY_0
*708 PHY_1
*709 PHY_10
*710 PHY_11
*711 PHY_12
*712 PHY_13
*713 PHY_14
*714 PHY_15
*715 PHY_16
*716 PHY_17
*717 PHY_18
*718 PHY_19
*719 PHY_2
*720 PHY_20
*721 PHY_21
*722 PHY_22
*723 PHY_23
*724 PHY_24
*725 PHY_25
*726 PHY_26
*727 PHY_27
*728 PHY_28
*729 PHY_29
*730 PHY_3
*731 PHY_30
*732 PHY_31
*733 PHY_32
*734 PHY_33
*735 PHY_34
*736 PHY_35
*737 PHY_36
*738 PHY_37
*739 PHY_38
*740 PHY_39
*741 PHY_4
*742 PHY_40
*743 PHY_41
*744 PHY_42
*745 PHY_43
*746 PHY_44
*747 PHY_45
*748 PHY_46
*749 PHY_47
*750 PHY_48
*751 PHY_49
*752 PHY_5
*753 PHY_50
*754 PHY_51
*755 PHY_52
*756 PHY_53
*757 PHY_54
*758 PHY_55
*759 PHY_6
*760 PHY_7
*761 PHY_8
*762 PHY_9
*763 TAP_100
*764 TAP_101
*765 TAP_102
*766 TAP_103
*767 TAP_104
*768 TAP_105
*769 TAP_106
*770 TAP_107
*771 TAP_108
*772 TAP_109
*773 TAP_110
*774 TAP_111
*775 TAP_112
*776 TAP_113
*777 TAP_114
*778 TAP_115
*779 TAP_116
*780 TAP_117
*781 TAP_118
*782 TAP_119
*783 TAP_120
*784 TAP_121
*785 TAP_122
*786 TAP_123
*787 TAP_124
*788 TAP_125
*789 TAP_126
*790 TAP_127
*791 TAP_128
*792 TAP_129
*793 TAP_130
*794 TAP_56
*795 TAP_57
*796 TAP_58
*797 TAP_59
*798 TAP_60
*799 TAP_61
*800 TAP_62
*801 TAP_63
*802 TAP_64
*803 TAP_65
*804 TAP_66
*805 TAP_67
*806 TAP_68
*807 TAP_69
*808 TAP_70
*809 TAP_71
*810 TAP_72
*811 TAP_73
*812 TAP_74
*813 TAP_75
*814 TAP_76
*815 TAP_77
*816 TAP_78
*817 TAP_79
*818 TAP_80
*819 TAP_81
*820 TAP_82
*821 TAP_83
*822 TAP_84
*823 TAP_85
*824 TAP_86
*825 TAP_87
*826 TAP_88
*827 TAP_89
*828 TAP_90
*829 TAP_91
*830 TAP_92
*831 TAP_93
*832 TAP_94
*833 TAP_95
*834 TAP_96
*835 TAP_97
*836 TAP_98
*837 TAP_99
*838 _02_
*839 _03_
*840 _04_
*841 _05_
*842 _06_
*843 _07_
*844 _08_
*845 _09_
*846 _10_
*847 _11_
*848 _12_
*849 _13_
*850 _14_
*851 _15_
*852 _16_
*853 _17_
*854 _18_
*855 _19_
*856 _20_
*857 _21_
*858 _22_
*859 _23_
*860 _24_
*861 _25_
*862 _26_
*863 _27_
*864 _28_
*865 _29_
*866 _30_
*867 _31_
*868 _32_
*869 _33_
*870 _34_
*871 _35_
*872 _36_
*873 _37_
*874 _38_
*875 _39_
*876 _40_
*877 _41_
*878 _42_
*879 hold1
*880 input1
*881 input10
*882 input11
*883 input12
*884 input13
*885 input14
*886 input15
*887 input16
*888 input17
*889 input18
*890 input19
*891 input2
*892 input20
*893 input21
*894 input22
*895 input23
*896 input24
*897 input25
*898 input26
*899 input27
*900 input28
*901 input29
*902 input3
*903 input30
*904 input31
*905 input32
*906 input33
*907 input34
*908 input35
*909 input36
*910 input37
*911 input38
*912 input39
*913 input4
*914 input40
*915 input41
*916 input42
*917 input43
*918 input44
*919 input5
*920 input6
*921 input7
*922 input8
*923 input9
*924 logical_tile_io_mode_io__0\.ltile_phy_iopad_0\.EMBEDDED_IO_HD_0_\.INV_SOC_DIR
*925 logical_tile_io_mode_io__0\.ltile_phy_iopad_0\.EMBEDDED_IO_HD_0_\.IN_PROTECT_GATE
*926 logical_tile_io_mode_io__0\.ltile_phy_iopad_0\.EMBEDDED_IO_HD_0_\.ISOL_EN_GATE
*927 logical_tile_io_mode_io__0\.ltile_phy_iopad_0\.EMBEDDED_IO_HD_0_\.OUT_PROTECT_GATE
*928 logical_tile_io_mode_io__0\.ltile_phy_iopad_0\.EMBEDDED_IO_HD_sky130_fd_sc_hd__dfxtp_1_mem\.sky130_fd_sc_hd__dfxtp_1_0_
*929 mem_right_ipin_0\.sky130_fd_sc_hd__dfxtp_1_0_
*930 mem_right_ipin_0\.sky130_fd_sc_hd__dfxtp_1_1_
*931 mem_right_ipin_0\.sky130_fd_sc_hd__dfxtp_1_2_
*932 mem_right_ipin_0\.sky130_fd_sc_hd__dfxtp_1_3_
*933 mux_right_ipin_0\.mux_l1_in_0_
*934 mux_right_ipin_0\.mux_l1_in_1_
*935 mux_right_ipin_0\.mux_l1_in_2_
*936 mux_right_ipin_0\.mux_l2_in_0_
*937 mux_right_ipin_0\.mux_l2_in_1_
*938 mux_right_ipin_0\.mux_l2_in_2_
*939 mux_right_ipin_0\.mux_l2_in_3_
*940 mux_right_ipin_0\.mux_l2_in_3__89
*941 mux_right_ipin_0\.mux_l3_in_0_
*942 mux_right_ipin_0\.mux_l3_in_1_
*943 mux_right_ipin_0\.mux_l4_in_0_
*944 mux_right_ipin_0\.sky130_fd_sc_hd__buf_4_0_
*945 output45
*946 output46
*947 output47
*948 output48
*949 output49
*950 output50
*951 output51
*952 output52
*953 output53
*954 output54
*955 output55
*956 output56
*957 output57
*958 output58
*959 output59
*960 output60
*961 output61
*962 output62
*963 output63
*964 output64
*965 output65
*966 output66
*967 output67
*968 output68
*969 output69
*970 output70
*971 output71
*972 output72
*973 output73
*974 output74
*975 output75
*976 output76
*977 output77
*978 output78
*979 output79
*980 output80
*981 output81
*982 output82
*983 output83
*984 output84
*985 output85
*986 output86
*987 output87
*988 output88
*989 prog_clk_0_FTB00

*PORTS
IO_ISOL_N I
ccff_head I
ccff_tail O
chany_bottom_in[0] I
chany_bottom_in[10] I
chany_bottom_in[11] I
chany_bottom_in[12] I
chany_bottom_in[13] I
chany_bottom_in[14] I
chany_bottom_in[15] I
chany_bottom_in[16] I
chany_bottom_in[17] I
chany_bottom_in[18] I
chany_bottom_in[19] I
chany_bottom_in[1] I
chany_bottom_in[2] I
chany_bottom_in[3] I
chany_bottom_in[4] I
chany_bottom_in[5] I
chany_bottom_in[6] I
chany_bottom_in[7] I
chany_bottom_in[8] I
chany_bottom_in[9] I
chany_bottom_out[0] O
chany_bottom_out[10] O
chany_bottom_out[11] O
chany_bottom_out[12] O
chany_bottom_out[13] O
chany_bottom_out[14] O
chany_bottom_out[15] O
chany_bottom_out[16] O
chany_bottom_out[17] O
chany_bottom_out[18] O
chany_bottom_out[19] O
chany_bottom_out[1] O
chany_bottom_out[2] O
chany_bottom_out[3] O
chany_bottom_out[4] O
chany_bottom_out[5] O
chany_bottom_out[6] O
chany_bottom_out[7] O
chany_bottom_out[8] O
chany_bottom_out[9] O
chany_top_in[0] I
chany_top_in[10] I
chany_top_in[11] I
chany_top_in[12] I
chany_top_in[13] I
chany_top_in[14] I
chany_top_in[15] I
chany_top_in[16] I
chany_top_in[17] I
chany_top_in[18] I
chany_top_in[19] I
chany_top_in[1] I
chany_top_in[2] I
chany_top_in[3] I
chany_top_in[4] I
chany_top_in[5] I
chany_top_in[6] I
chany_top_in[7] I
chany_top_in[8] I
chany_top_in[9] I
chany_top_out[0] O
chany_top_out[10] O
chany_top_out[11] O
chany_top_out[12] O
chany_top_out[13] O
chany_top_out[14] O
chany_top_out[15] O
chany_top_out[16] O
chany_top_out[17] O
chany_top_out[18] O
chany_top_out[19] O
chany_top_out[1] O
chany_top_out[2] O
chany_top_out[3] O
chany_top_out[4] O
chany_top_out[5] O
chany_top_out[6] O
chany_top_out[7] O
chany_top_out[8] O
chany_top_out[9] O
gfpga_pad_EMBEDDED_IO_HD_SOC_DIR O
gfpga_pad_EMBEDDED_IO_HD_SOC_IN I
gfpga_pad_EMBEDDED_IO_HD_SOC_OUT O
left_grid_pin_0_ O
prog_clk_0_E_in I
right_width_0_height_0__pin_0_ I
right_width_0_height_0__pin_1_lower O
right_width_0_height_0__pin_1_upper O

*D_NET *1 0.00135679
*CONN
*P IO_ISOL_N I
*I *880:A I *D sky130_fd_sc_hd__clkbuf_1
*I *211:DIODE I *D sky130_fd_sc_hd__diode_2
*CAP
1 IO_ISOL_N 0.000557255
2 *880:A 2.56688e-05
3 *211:DIODE 9.54731e-05
4 *1:9 0.000678397
5 *211:DIODE *977:A 0
6 *211:DIODE *110:11 0
7 *1:9 chany_top_out[0] 0
8 *1:9 *4:10 0
*RES
1 IO_ISOL_N *1:9 12.7143 
2 *1:9 *211:DIODE 15.9786 
3 *1:9 *880:A 14.3357 
*END

*D_NET *4 0.00124567
*CONN
*P ccff_head I
*I *222:DIODE I *D sky130_fd_sc_hd__diode_2
*I *891:A I *D sky130_fd_sc_hd__clkbuf_1
*CAP
1 ccff_head 0.000557805
2 *222:DIODE 6.50276e-05
3 *891:A 0
4 *4:10 0.000622833
5 *222:DIODE *121:17 0
6 *4:10 chany_top_out[0] 0
7 *4:10 chany_top_out[1] 0
8 *4:10 *977:A 0
9 *1:9 *4:10 0
*RES
1 ccff_head *4:10 16.0212 
2 *4:10 *891:A 9.3 
3 *4:10 *222:DIODE 10.6571 
*END

*D_NET *5 0.000468888
*CONN
*P ccff_tail O
*I *945:X O *D sky130_fd_sc_hd__buf_2
*CAP
1 ccff_tail 0.000234444
2 *945:X 0.000234444
3 ccff_tail *136:8 0
*RES
1 *945:X ccff_tail 18.8021 
*END

*D_NET *6 0.00105031
*CONN
*P chany_bottom_in[0] I
*I *233:DIODE I *D sky130_fd_sc_hd__diode_2
*I *902:A I *D sky130_fd_sc_hd__clkbuf_1
*CAP
1 chany_bottom_in[0] 0.000343319
2 *233:DIODE 9.6271e-05
3 *902:A 8.55626e-05
4 *6:9 0.000525153
5 *233:DIODE *846:A 0
6 *233:DIODE *956:A 0
7 *902:A *955:A 0
8 *6:9 chany_bottom_out[19] 0
9 *6:9 *846:A 0
10 *6:9 *17:5 0
*RES
1 chany_bottom_in[0] *6:9 7.85714 
2 *6:9 *902:A 15.5857 
3 *6:9 *233:DIODE 16.05 
*END

*D_NET *7 0.00102688
*CONN
*P chany_bottom_in[10] I
*I *239:DIODE I *D sky130_fd_sc_hd__diode_2
*I *913:A I *D sky130_fd_sc_hd__clkbuf_1
*CAP
1 chany_bottom_in[10] 0.000359443
2 *239:DIODE 0.000108647
3 *913:A 4.53482e-05
4 *7:9 0.000513439
5 *239:DIODE *214:DIODE 0
6 *239:DIODE *956:A 0
7 *913:A *165:11 0
8 *913:A *198:9 0
9 *7:9 *8:5 0
10 *7:9 *25:5 0
*RES
1 chany_bottom_in[10] *7:9 8.16071 
2 *7:9 *913:A 14.7464 
3 *7:9 *239:DIODE 16.2821 
*END

*D_NET *8 0.000962202
*CONN
*P chany_bottom_in[11] I
*I *240:DIODE I *D sky130_fd_sc_hd__diode_2
*I *919:A I *D sky130_fd_sc_hd__clkbuf_1
*CAP
1 chany_bottom_in[11] 0.000333095
2 *240:DIODE 8.29787e-05
3 *919:A 6.50276e-05
4 *8:5 0.000481101
5 *240:DIODE right_width_0_height_0__pin_1_lower 0
6 *240:DIODE *241:DIODE 0
7 *240:DIODE *154:21 0
8 *919:A *165:11 0
9 *919:A *198:9 0
10 *8:5 *9:5 0
11 *7:9 *8:5 0
*RES
1 chany_bottom_in[11] *8:5 7.5 
2 *8:5 *919:A 15.1571 
3 *8:5 *240:DIODE 15.7464 
*END

*D_NET *9 0.000962202
*CONN
*P chany_bottom_in[12] I
*I *241:DIODE I *D sky130_fd_sc_hd__diode_2
*I *920:A I *D sky130_fd_sc_hd__clkbuf_1
*CAP
1 chany_bottom_in[12] 0.000333095
2 *241:DIODE 8.29787e-05
3 *920:A 6.50276e-05
4 *9:5 0.000481101
5 *241:DIODE *855:A 0
6 *241:DIODE *187:8 0
7 *920:A *165:11 0
8 *920:A *198:9 0
9 *9:5 *10:9 0
10 *9:5 *187:8 0
11 *240:DIODE *241:DIODE 0
12 *8:5 *9:5 0
*RES
1 chany_bottom_in[12] *9:5 7.5 
2 *9:5 *920:A 15.1571 
3 *9:5 *241:DIODE 15.7464 
*END

*D_NET *10 0.00108175
*CONN
*P chany_bottom_in[13] I
*I *242:DIODE I *D sky130_fd_sc_hd__diode_2
*I *921:A I *D sky130_fd_sc_hd__clkbuf_1
*CAP
1 chany_bottom_in[13] 0.000392871
2 *242:DIODE 0.000148006
3 *921:A 0
4 *10:9 0.000540877
5 *242:DIODE *243:DIODE 0
6 *242:DIODE *11:5 0
7 *242:DIODE *114:7 0
8 *242:DIODE *187:8 0
9 *10:9 *11:5 0
10 *10:9 *187:8 0
11 *9:5 *10:9 0
*RES
1 chany_bottom_in[13] *10:9 8.98214 
2 *10:9 *921:A 13.8 
3 *10:9 *242:DIODE 17.1036 
*END

*D_NET *11 0.00100156
*CONN
*P chany_bottom_in[14] I
*I *243:DIODE I *D sky130_fd_sc_hd__diode_2
*I *922:A I *D sky130_fd_sc_hd__clkbuf_1
*CAP
1 chany_bottom_in[14] 0.000333095
2 *243:DIODE 8.29787e-05
3 *922:A 8.4707e-05
4 *11:5 0.00050078
5 *243:DIODE *244:DIODE 0
6 *922:A *187:8 0
7 *922:A *198:9 0
8 *11:5 *12:7 0
9 *242:DIODE *243:DIODE 0
10 *242:DIODE *11:5 0
11 *10:9 *11:5 0
*RES
1 chany_bottom_in[14] *11:5 7.5 
2 *11:5 *922:A 15.5679 
3 *11:5 *243:DIODE 15.7464 
*END

*D_NET *12 0.00110784
*CONN
*P chany_bottom_in[15] I
*I *244:DIODE I *D sky130_fd_sc_hd__diode_2
*I *923:A I *D sky130_fd_sc_hd__clkbuf_1
*CAP
1 chany_bottom_in[15] 0.000355275
2 *244:DIODE 0.000153299
3 *923:A 4.53482e-05
4 *12:7 0.000553922
5 *244:DIODE *201:DIODE 0
6 *244:DIODE *114:7 0
7 *923:A *113:15 0
8 *12:7 *13:5 0
9 *243:DIODE *244:DIODE 0
10 *11:5 *12:7 0
*RES
1 chany_bottom_in[15] *12:7 8.03571 
2 *12:7 *923:A 14.7464 
3 *12:7 *244:DIODE 17.2286 
*END

*D_NET *13 0.000956578
*CONN
*P chany_bottom_in[16] I
*I *201:DIODE I *D sky130_fd_sc_hd__diode_2
*I *881:A I *D sky130_fd_sc_hd__clkbuf_1
*CAP
1 chany_bottom_in[16] 0.000330302
2 *201:DIODE 8.2959e-05
3 *881:A 6.50276e-05
4 *13:5 0.000478289
5 *201:DIODE *202:DIODE 0
6 *881:A *113:15 0
7 *13:5 *14:5 0
8 *13:5 *111:11 0
9 *244:DIODE *201:DIODE 0
10 *12:7 *13:5 0
*RES
1 chany_bottom_in[16] *13:5 7.5 
2 *13:5 *881:A 15.1571 
3 *13:5 *201:DIODE 15.7464 
*END

*D_NET *14 0.000979008
*CONN
*P chany_bottom_in[17] I
*I *882:A I *D sky130_fd_sc_hd__clkbuf_1
*I *202:DIODE I *D sky130_fd_sc_hd__diode_2
*CAP
1 chany_bottom_in[17] 0.000323656
2 *882:A 7.34504e-05
3 *202:DIODE 9.23974e-05
4 *14:5 0.000489504
5 *202:DIODE *203:DIODE 0
6 *882:A *15:5 0
7 *882:A *113:15 0
8 *14:5 *15:5 0
9 *14:5 *111:11 0
10 *14:5 *112:14 0
11 *201:DIODE *202:DIODE 0
12 *13:5 *14:5 0
*RES
1 chany_bottom_in[17] *14:5 7.34821 
2 *14:5 *202:DIODE 15.8982 
3 *14:5 *882:A 15.5589 
*END

*D_NET *15 0.00104739
*CONN
*P chany_bottom_in[18] I
*I *203:DIODE I *D sky130_fd_sc_hd__diode_2
*I *883:A I *D sky130_fd_sc_hd__clkbuf_1
*CAP
1 chany_bottom_in[18] 0.000330342
2 *203:DIODE 0.000128327
3 *883:A 6.50276e-05
4 *15:5 0.000523696
5 *203:DIODE *16:8 0
6 *203:DIODE *114:7 0
7 *883:A *113:15 0
8 *15:5 *16:8 0
9 *15:5 *112:14 0
10 *202:DIODE *203:DIODE 0
11 *882:A *15:5 0
12 *14:5 *15:5 0
*RES
1 chany_bottom_in[18] *15:5 7.5 
2 *15:5 *883:A 15.1571 
3 *15:5 *203:DIODE 16.6929 
*END

*D_NET *16 0.00108223
*CONN
*P chany_bottom_in[19] I
*I *884:A I *D sky130_fd_sc_hd__clkbuf_1
*I *204:DIODE I *D sky130_fd_sc_hd__diode_2
*CAP
1 chany_bottom_in[19] 0.000476088
2 *884:A 0
3 *204:DIODE 6.50276e-05
4 *16:8 0.000541115
5 *204:DIODE *114:7 0
6 *203:DIODE *16:8 0
7 *15:5 *16:8 0
*RES
1 chany_bottom_in[19] *16:8 15.2679 
2 *16:8 *204:DIODE 10.6571 
3 *16:8 *884:A 9.3 
*END

*D_NET *17 0.000964214
*CONN
*P chany_bottom_in[1] I
*I *885:A I *D sky130_fd_sc_hd__clkbuf_1
*I *205:DIODE I *D sky130_fd_sc_hd__diode_2
*CAP
1 chany_bottom_in[1] 0.000330302
2 *885:A 6.8944e-05
3 *205:DIODE 8.28607e-05
4 *17:5 0.000482107
5 *205:DIODE *846:A 0
6 *205:DIODE *111:12 0
7 *885:A *955:A 0
8 *17:5 *846:A 0
9 *17:5 *18:5 0
10 *17:5 *111:12 0
11 *17:5 *115:11 0
12 *6:9 *17:5 0
*RES
1 chany_bottom_in[1] *17:5 7.5 
2 *17:5 *205:DIODE 15.7464 
3 *17:5 *885:A 15.2821 
*END

*D_NET *18 0.000973266
*CONN
*P chany_bottom_in[2] I
*I *886:A I *D sky130_fd_sc_hd__clkbuf_1
*I *206:DIODE I *D sky130_fd_sc_hd__diode_2
*CAP
1 chany_bottom_in[2] 0.00032226
2 *886:A 7.78549e-05
3 *206:DIODE 8.65181e-05
4 *18:5 0.000486633
5 *206:DIODE *111:12 0
6 *206:DIODE *116:16 0
7 *886:A *955:A 0
8 *18:5 *19:5 0
9 *18:5 *111:12 0
10 *17:5 *18:5 0
*RES
1 chany_bottom_in[2] *18:5 7.34821 
2 *18:5 *206:DIODE 15.8982 
3 *18:5 *886:A 15.5589 
*END

*D_NET *19 0.000956539
*CONN
*P chany_bottom_in[3] I
*I *207:DIODE I *D sky130_fd_sc_hd__diode_2
*I *887:A I *D sky130_fd_sc_hd__clkbuf_1
*CAP
1 chany_bottom_in[3] 0.000330302
2 *207:DIODE 8.29394e-05
3 *887:A 6.50276e-05
4 *19:5 0.000478269
5 *207:DIODE *117:13 0
6 *207:DIODE *152:8 0
7 *887:A *955:A 0
8 *19:5 *20:5 0
9 *19:5 *155:10 0
10 *18:5 *19:5 0
*RES
1 chany_bottom_in[3] *19:5 7.5 
2 *19:5 *887:A 15.1571 
3 *19:5 *207:DIODE 15.7464 
*END

*D_NET *20 0.000956617
*CONN
*P chany_bottom_in[4] I
*I *208:DIODE I *D sky130_fd_sc_hd__diode_2
*I *888:A I *D sky130_fd_sc_hd__clkbuf_1
*CAP
1 chany_bottom_in[4] 0.000330302
2 *208:DIODE 8.29787e-05
3 *888:A 6.50276e-05
4 *20:5 0.000478309
5 *208:DIODE *209:DIODE 0
6 *208:DIODE *118:13 0
7 *208:DIODE *155:10 0
8 *888:A *955:A 0
9 *20:5 *21:5 0
10 *20:5 *155:10 0
11 *19:5 *20:5 0
*RES
1 chany_bottom_in[4] *20:5 7.5 
2 *20:5 *888:A 15.1571 
3 *20:5 *208:DIODE 15.7464 
*END

*D_NET *21 0.00106061
*CONN
*P chany_bottom_in[5] I
*I *209:DIODE I *D sky130_fd_sc_hd__diode_2
*I *889:A I *D sky130_fd_sc_hd__clkbuf_1
*CAP
1 chany_bottom_in[5] 0.000331659
2 *209:DIODE 0.00013362
3 *889:A 6.50276e-05
4 *21:5 0.000530307
5 *209:DIODE *951:A 0
6 *209:DIODE *165:17 0
7 *889:A *955:A 0
8 *889:A *165:11 0
9 *21:5 *22:5 0
10 *21:5 *119:11 0
11 *208:DIODE *209:DIODE 0
12 *20:5 *21:5 0
*RES
1 chany_bottom_in[5] *21:5 7.5 
2 *21:5 *889:A 15.1571 
3 *21:5 *209:DIODE 16.8179 
*END

*D_NET *22 0.00096445
*CONN
*P chany_bottom_in[6] I
*I *890:A I *D sky130_fd_sc_hd__clkbuf_1
*I *210:DIODE I *D sky130_fd_sc_hd__diode_2
*CAP
1 chany_bottom_in[6] 0.000330322
2 *890:A 6.8944e-05
3 *210:DIODE 8.2959e-05
4 *22:5 0.000482225
5 *210:DIODE *112:14 0
6 *210:DIODE *112:21 0
7 *210:DIODE *165:17 0
8 *890:A *955:A 0
9 *890:A *165:11 0
10 *22:5 *23:5 0
11 *22:5 *112:14 0
12 *22:5 *119:11 0
13 *22:5 *120:11 0
14 *21:5 *22:5 0
*RES
1 chany_bottom_in[6] *22:5 7.5 
2 *22:5 *210:DIODE 15.7464 
3 *22:5 *890:A 15.2821 
*END

*D_NET *23 0.00108675
*CONN
*P chany_bottom_in[7] I
*I *212:DIODE I *D sky130_fd_sc_hd__diode_2
*I *892:A I *D sky130_fd_sc_hd__clkbuf_1
*CAP
1 chany_bottom_in[7] 0.000330342
2 *212:DIODE 0.000128327
3 *892:A 8.4707e-05
4 *23:5 0.000543376
5 *212:DIODE *956:A 0
6 *212:DIODE *112:14 0
7 *212:DIODE *112:21 0
8 *212:DIODE *157:8 0
9 *892:A *954:A 0
10 *892:A *955:A 0
11 *892:A *165:11 0
12 *23:5 *24:7 0
13 *23:5 *112:14 0
14 *23:5 *120:11 0
15 *23:5 *157:8 0
16 *22:5 *23:5 0
*RES
1 chany_bottom_in[7] *23:5 7.5 
2 *23:5 *892:A 15.5679 
3 *23:5 *212:DIODE 16.6929 
*END

*D_NET *24 0.000964529
*CONN
*P chany_bottom_in[8] I
*I *213:DIODE I *D sky130_fd_sc_hd__diode_2
*I *893:A I *D sky130_fd_sc_hd__clkbuf_1
*CAP
1 chany_bottom_in[8] 0.000352561
2 *213:DIODE 8.43551e-05
3 *893:A 4.53482e-05
4 *24:7 0.000482265
5 *213:DIODE *214:DIODE 0
6 *213:DIODE *852:A 0
7 *213:DIODE *159:8 0
8 *893:A *165:11 0
9 *893:A *198:9 0
10 *24:7 *25:5 0
11 *24:7 *122:20 0
12 *24:7 *124:13 0
13 *24:7 *157:8 0
14 *23:5 *24:7 0
*RES
1 chany_bottom_in[8] *24:7 8.03571 
2 *24:7 *893:A 14.7464 
3 *24:7 *213:DIODE 15.7464 
*END
