*SPEF "ieee 1481-1999"
*DESIGN "cby_1__1_"
*DATE "11:11:11 Fri 11 11, 1111"
*VENDOR "OpenRCX"
*PROGRAM "Parallel Extraction"
*VERSION "1.0"
*DESIGN_FLOW "NAME_SCOPE LOCAL" "PIN_CAP NONE"
*DIVIDER /
*DELIMITER :
*BUS_DELIMITER []
*T_UNIT 1 NS
*C_UNIT 1 PF
*R_UNIT 1 OHM
*L_UNIT 1 HENRY

*NAME_MAP
*1 Test_en_E_in
*2 Test_en_E_out
*3 Test_en_N_out
*4 Test_en_S_in
*5 Test_en_W_in
*6 Test_en_W_out
*9 ccff_head
*10 ccff_tail
*11 chany_bottom_in[0]
*12 chany_bottom_in[10]
*13 chany_bottom_in[11]
*14 chany_bottom_in[12]
*15 chany_bottom_in[13]
*16 chany_bottom_in[14]
*17 chany_bottom_in[15]
*18 chany_bottom_in[16]
*19 chany_bottom_in[17]
*20 chany_bottom_in[18]
*21 chany_bottom_in[19]
*22 chany_bottom_in[1]
*23 chany_bottom_in[2]
*24 chany_bottom_in[3]
*25 chany_bottom_in[4]
*26 chany_bottom_in[5]
*27 chany_bottom_in[6]
*28 chany_bottom_in[7]
*29 chany_bottom_in[8]
*30 chany_bottom_in[9]
*31 chany_bottom_out[0]
*32 chany_bottom_out[10]
*33 chany_bottom_out[11]
*34 chany_bottom_out[12]
*35 chany_bottom_out[13]
*36 chany_bottom_out[14]
*37 chany_bottom_out[15]
*38 chany_bottom_out[16]
*39 chany_bottom_out[17]
*40 chany_bottom_out[18]
*41 chany_bottom_out[19]
*42 chany_bottom_out[1]
*43 chany_bottom_out[2]
*44 chany_bottom_out[3]
*45 chany_bottom_out[4]
*46 chany_bottom_out[5]
*47 chany_bottom_out[6]
*48 chany_bottom_out[7]
*49 chany_bottom_out[8]
*50 chany_bottom_out[9]
*51 chany_top_in[0]
*52 chany_top_in[10]
*53 chany_top_in[11]
*54 chany_top_in[12]
*55 chany_top_in[13]
*56 chany_top_in[14]
*57 chany_top_in[15]
*58 chany_top_in[16]
*59 chany_top_in[17]
*60 chany_top_in[18]
*61 chany_top_in[19]
*62 chany_top_in[1]
*63 chany_top_in[2]
*64 chany_top_in[3]
*65 chany_top_in[4]
*66 chany_top_in[5]
*67 chany_top_in[6]
*68 chany_top_in[7]
*69 chany_top_in[8]
*70 chany_top_in[9]
*71 chany_top_out[0]
*72 chany_top_out[10]
*73 chany_top_out[11]
*74 chany_top_out[12]
*75 chany_top_out[13]
*76 chany_top_out[14]
*77 chany_top_out[15]
*78 chany_top_out[16]
*79 chany_top_out[17]
*80 chany_top_out[18]
*81 chany_top_out[19]
*82 chany_top_out[1]
*83 chany_top_out[2]
*84 chany_top_out[3]
*85 chany_top_out[4]
*86 chany_top_out[5]
*87 chany_top_out[6]
*88 chany_top_out[7]
*89 chany_top_out[8]
*90 chany_top_out[9]
*91 clk_2_N_out
*92 clk_2_S_in
*93 clk_2_S_out
*94 clk_3_N_out
*95 clk_3_S_in
*96 clk_3_S_out
*97 left_grid_pin_16_
*98 left_grid_pin_17_
*99 left_grid_pin_18_
*100 left_grid_pin_19_
*101 left_grid_pin_20_
*102 left_grid_pin_21_
*103 left_grid_pin_22_
*104 left_grid_pin_23_
*105 left_grid_pin_24_
*106 left_grid_pin_25_
*107 left_grid_pin_26_
*108 left_grid_pin_27_
*109 left_grid_pin_28_
*110 left_grid_pin_29_
*111 left_grid_pin_30_
*112 left_grid_pin_31_
*113 prog_clk_0_N_out
*114 prog_clk_0_S_out
*115 prog_clk_0_W_in
*116 prog_clk_2_N_out
*117 prog_clk_2_S_in
*118 prog_clk_2_S_out
*119 prog_clk_3_N_out
*120 prog_clk_3_S_in
*121 prog_clk_3_S_out
*122 _00_
*123 _01_
*124 _02_
*125 _03_
*126 _04_
*127 _05_
*128 _06_
*129 _07_
*130 _08_
*131 _09_
*132 _10_
*133 _11_
*134 _12_
*135 _13_
*136 _14_
*137 _15_
*138 mem_right_ipin_0\.ccff_tail
*139 mem_right_ipin_0\.mem_out\[0\]
*140 mem_right_ipin_0\.mem_out\[1\]
*141 mem_right_ipin_0\.mem_out\[2\]
*142 mem_right_ipin_0\.prog_clk
*143 mem_right_ipin_1\.ccff_tail
*144 mem_right_ipin_1\.mem_out\[0\]
*145 mem_right_ipin_1\.mem_out\[1\]
*146 mem_right_ipin_1\.mem_out\[2\]
*147 mem_right_ipin_10\.ccff_head
*148 mem_right_ipin_10\.ccff_tail
*149 mem_right_ipin_10\.mem_out\[0\]
*150 mem_right_ipin_10\.mem_out\[1\]
*151 mem_right_ipin_10\.mem_out\[2\]
*152 mem_right_ipin_11\.ccff_tail
*153 mem_right_ipin_11\.mem_out\[0\]
*154 mem_right_ipin_11\.mem_out\[1\]
*155 mem_right_ipin_11\.mem_out\[2\]
*156 mem_right_ipin_12\.ccff_tail
*157 mem_right_ipin_12\.mem_out\[0\]
*158 mem_right_ipin_12\.mem_out\[1\]
*159 mem_right_ipin_12\.mem_out\[2\]
*160 mem_right_ipin_13\.ccff_tail
*161 mem_right_ipin_13\.mem_out\[0\]
*162 mem_right_ipin_13\.mem_out\[1\]
*163 mem_right_ipin_13\.mem_out\[2\]
*164 mem_right_ipin_14\.ccff_tail
*165 mem_right_ipin_14\.mem_out\[0\]
*166 mem_right_ipin_14\.mem_out\[1\]
*167 mem_right_ipin_14\.mem_out\[2\]
*168 mem_right_ipin_15\.mem_out\[0\]
*169 mem_right_ipin_15\.mem_out\[1\]
*170 mem_right_ipin_15\.mem_out\[2\]
*171 mem_right_ipin_2\.ccff_tail
*172 mem_right_ipin_2\.mem_out\[0\]
*173 mem_right_ipin_2\.mem_out\[1\]
*174 mem_right_ipin_2\.mem_out\[2\]
*175 mem_right_ipin_3\.ccff_tail
*176 mem_right_ipin_3\.mem_out\[0\]
*177 mem_right_ipin_3\.mem_out\[1\]
*178 mem_right_ipin_3\.mem_out\[2\]
*179 mem_right_ipin_4\.ccff_tail
*180 mem_right_ipin_4\.mem_out\[0\]
*181 mem_right_ipin_4\.mem_out\[1\]
*182 mem_right_ipin_4\.mem_out\[2\]
*183 mem_right_ipin_5\.ccff_tail
*184 mem_right_ipin_5\.mem_out\[0\]
*185 mem_right_ipin_5\.mem_out\[1\]
*186 mem_right_ipin_5\.mem_out\[2\]
*187 mem_right_ipin_6\.ccff_tail
*188 mem_right_ipin_6\.mem_out\[0\]
*189 mem_right_ipin_6\.mem_out\[1\]
*190 mem_right_ipin_6\.mem_out\[2\]
*191 mem_right_ipin_7\.ccff_tail
*192 mem_right_ipin_7\.mem_out\[0\]
*193 mem_right_ipin_7\.mem_out\[1\]
*194 mem_right_ipin_7\.mem_out\[2\]
*195 mem_right_ipin_8\.ccff_tail
*196 mem_right_ipin_8\.mem_out\[0\]
*197 mem_right_ipin_8\.mem_out\[1\]
*198 mem_right_ipin_8\.mem_out\[2\]
*199 mem_right_ipin_9\.mem_out\[0\]
*200 mem_right_ipin_9\.mem_out\[1\]
*201 mem_right_ipin_9\.mem_out\[2\]
*202 mux_right_ipin_0\.sky130_fd_sc_hd__mux2_1_0_X
*203 mux_right_ipin_0\.sky130_fd_sc_hd__mux2_1_1_X
*204 mux_right_ipin_0\.sky130_fd_sc_hd__mux2_1_2_X
*205 mux_right_ipin_0\.sky130_fd_sc_hd__mux2_1_3_X
*206 mux_right_ipin_0\.sky130_fd_sc_hd__mux2_1_4_X
*207 mux_right_ipin_0\.sky130_fd_sc_hd__mux2_1_5_X
*208 mux_right_ipin_0\.sky130_fd_sc_hd__mux2_1_6_X
*209 mux_right_ipin_0\.sky130_fd_sc_hd__mux2_1_7_X
*210 mux_right_ipin_0\.sky130_fd_sc_hd__mux2_1_8_X
*211 mux_right_ipin_0\.sky130_fd_sc_hd__mux2_1_9_X
*212 mux_right_ipin_1\.sky130_fd_sc_hd__mux2_1_0_X
*213 mux_right_ipin_1\.sky130_fd_sc_hd__mux2_1_1_X
*214 mux_right_ipin_1\.sky130_fd_sc_hd__mux2_1_2_X
*215 mux_right_ipin_1\.sky130_fd_sc_hd__mux2_1_3_X
*216 mux_right_ipin_1\.sky130_fd_sc_hd__mux2_1_4_X
*217 mux_right_ipin_1\.sky130_fd_sc_hd__mux2_1_5_X
*218 mux_right_ipin_1\.sky130_fd_sc_hd__mux2_1_6_X
*219 mux_right_ipin_1\.sky130_fd_sc_hd__mux2_1_7_X
*220 mux_right_ipin_10\.sky130_fd_sc_hd__mux2_1_0_X
*221 mux_right_ipin_10\.sky130_fd_sc_hd__mux2_1_1_X
*222 mux_right_ipin_10\.sky130_fd_sc_hd__mux2_1_2_X
*223 mux_right_ipin_10\.sky130_fd_sc_hd__mux2_1_3_X
*224 mux_right_ipin_10\.sky130_fd_sc_hd__mux2_1_4_X
*225 mux_right_ipin_10\.sky130_fd_sc_hd__mux2_1_5_X
*226 mux_right_ipin_10\.sky130_fd_sc_hd__mux2_1_6_X
*227 mux_right_ipin_10\.sky130_fd_sc_hd__mux2_1_7_X
*228 mux_right_ipin_11\.sky130_fd_sc_hd__mux2_1_0_X
*229 mux_right_ipin_11\.sky130_fd_sc_hd__mux2_1_1_X
*230 mux_right_ipin_11\.sky130_fd_sc_hd__mux2_1_2_X
*231 mux_right_ipin_11\.sky130_fd_sc_hd__mux2_1_3_X
*232 mux_right_ipin_11\.sky130_fd_sc_hd__mux2_1_4_X
*233 mux_right_ipin_11\.sky130_fd_sc_hd__mux2_1_5_X
*234 mux_right_ipin_11\.sky130_fd_sc_hd__mux2_1_6_X
*235 mux_right_ipin_11\.sky130_fd_sc_hd__mux2_1_7_X
*236 mux_right_ipin_11\.sky130_fd_sc_hd__mux2_1_8_X
*237 mux_right_ipin_11\.sky130_fd_sc_hd__mux2_1_9_X
*238 mux_right_ipin_12\.sky130_fd_sc_hd__mux2_1_0_X
*239 mux_right_ipin_12\.sky130_fd_sc_hd__mux2_1_1_X
*240 mux_right_ipin_12\.sky130_fd_sc_hd__mux2_1_2_X
*241 mux_right_ipin_12\.sky130_fd_sc_hd__mux2_1_3_X
*242 mux_right_ipin_12\.sky130_fd_sc_hd__mux2_1_4_X
*243 mux_right_ipin_12\.sky130_fd_sc_hd__mux2_1_5_X
*244 mux_right_ipin_12\.sky130_fd_sc_hd__mux2_1_6_X
*245 mux_right_ipin_12\.sky130_fd_sc_hd__mux2_1_7_X
*246 mux_right_ipin_12\.sky130_fd_sc_hd__mux2_1_8_X
*247 mux_right_ipin_12\.sky130_fd_sc_hd__mux2_1_9_X
*248 mux_right_ipin_13\.sky130_fd_sc_hd__mux2_1_0_X
*249 mux_right_ipin_13\.sky130_fd_sc_hd__mux2_1_1_X
*250 mux_right_ipin_13\.sky130_fd_sc_hd__mux2_1_2_X
*251 mux_right_ipin_13\.sky130_fd_sc_hd__mux2_1_3_X
*252 mux_right_ipin_13\.sky130_fd_sc_hd__mux2_1_4_X
*253 mux_right_ipin_13\.sky130_fd_sc_hd__mux2_1_5_X
*254 mux_right_ipin_13\.sky130_fd_sc_hd__mux2_1_6_X
*255 mux_right_ipin_13\.sky130_fd_sc_hd__mux2_1_7_X
*256 mux_right_ipin_14\.sky130_fd_sc_hd__mux2_1_0_X
*257 mux_right_ipin_14\.sky130_fd_sc_hd__mux2_1_1_X
*258 mux_right_ipin_14\.sky130_fd_sc_hd__mux2_1_2_X
*259 mux_right_ipin_14\.sky130_fd_sc_hd__mux2_1_3_X
*260 mux_right_ipin_14\.sky130_fd_sc_hd__mux2_1_4_X
*261 mux_right_ipin_14\.sky130_fd_sc_hd__mux2_1_5_X
*262 mux_right_ipin_14\.sky130_fd_sc_hd__mux2_1_6_X
*263 mux_right_ipin_14\.sky130_fd_sc_hd__mux2_1_7_X
*264 mux_right_ipin_15\.sky130_fd_sc_hd__mux2_1_0_X
*265 mux_right_ipin_15\.sky130_fd_sc_hd__mux2_1_1_X
*266 mux_right_ipin_15\.sky130_fd_sc_hd__mux2_1_2_X
*267 mux_right_ipin_15\.sky130_fd_sc_hd__mux2_1_3_X
*268 mux_right_ipin_15\.sky130_fd_sc_hd__mux2_1_4_X
*269 mux_right_ipin_15\.sky130_fd_sc_hd__mux2_1_5_X
*270 mux_right_ipin_15\.sky130_fd_sc_hd__mux2_1_6_X
*271 mux_right_ipin_15\.sky130_fd_sc_hd__mux2_1_7_X
*272 mux_right_ipin_15\.sky130_fd_sc_hd__mux2_1_8_X
*273 mux_right_ipin_15\.sky130_fd_sc_hd__mux2_1_9_X
*274 mux_right_ipin_2\.sky130_fd_sc_hd__mux2_1_0_X
*275 mux_right_ipin_2\.sky130_fd_sc_hd__mux2_1_1_X
*276 mux_right_ipin_2\.sky130_fd_sc_hd__mux2_1_2_X
*277 mux_right_ipin_2\.sky130_fd_sc_hd__mux2_1_3_X
*278 mux_right_ipin_2\.sky130_fd_sc_hd__mux2_1_4_X
*279 mux_right_ipin_2\.sky130_fd_sc_hd__mux2_1_5_X
*280 mux_right_ipin_2\.sky130_fd_sc_hd__mux2_1_6_X
*281 mux_right_ipin_2\.sky130_fd_sc_hd__mux2_1_7_X
*282 mux_right_ipin_3\.sky130_fd_sc_hd__mux2_1_0_X
*283 mux_right_ipin_3\.sky130_fd_sc_hd__mux2_1_1_X
*284 mux_right_ipin_3\.sky130_fd_sc_hd__mux2_1_2_X
*285 mux_right_ipin_3\.sky130_fd_sc_hd__mux2_1_3_X
*286 mux_right_ipin_3\.sky130_fd_sc_hd__mux2_1_4_X
*287 mux_right_ipin_3\.sky130_fd_sc_hd__mux2_1_5_X
*288 mux_right_ipin_3\.sky130_fd_sc_hd__mux2_1_6_X
*289 mux_right_ipin_3\.sky130_fd_sc_hd__mux2_1_7_X
*290 mux_right_ipin_3\.sky130_fd_sc_hd__mux2_1_8_X
*291 mux_right_ipin_3\.sky130_fd_sc_hd__mux2_1_9_X
*292 mux_right_ipin_4\.sky130_fd_sc_hd__mux2_1_0_X
*293 mux_right_ipin_4\.sky130_fd_sc_hd__mux2_1_1_X
*294 mux_right_ipin_4\.sky130_fd_sc_hd__mux2_1_2_X
*295 mux_right_ipin_4\.sky130_fd_sc_hd__mux2_1_3_X
*296 mux_right_ipin_4\.sky130_fd_sc_hd__mux2_1_4_X
*297 mux_right_ipin_4\.sky130_fd_sc_hd__mux2_1_5_X
*298 mux_right_ipin_4\.sky130_fd_sc_hd__mux2_1_6_X
*299 mux_right_ipin_4\.sky130_fd_sc_hd__mux2_1_7_X
*300 mux_right_ipin_4\.sky130_fd_sc_hd__mux2_1_8_X
*301 mux_right_ipin_4\.sky130_fd_sc_hd__mux2_1_9_X
*302 mux_right_ipin_5\.sky130_fd_sc_hd__mux2_1_0_X
*303 mux_right_ipin_5\.sky130_fd_sc_hd__mux2_1_1_X
*304 mux_right_ipin_5\.sky130_fd_sc_hd__mux2_1_2_X
*305 mux_right_ipin_5\.sky130_fd_sc_hd__mux2_1_3_X
*306 mux_right_ipin_5\.sky130_fd_sc_hd__mux2_1_4_X
*307 mux_right_ipin_5\.sky130_fd_sc_hd__mux2_1_5_X
*308 mux_right_ipin_5\.sky130_fd_sc_hd__mux2_1_6_X
*309 mux_right_ipin_5\.sky130_fd_sc_hd__mux2_1_7_X
*310 mux_right_ipin_6\.sky130_fd_sc_hd__mux2_1_0_X
*311 mux_right_ipin_6\.sky130_fd_sc_hd__mux2_1_1_X
*312 mux_right_ipin_6\.sky130_fd_sc_hd__mux2_1_2_X
*313 mux_right_ipin_6\.sky130_fd_sc_hd__mux2_1_3_X
*314 mux_right_ipin_6\.sky130_fd_sc_hd__mux2_1_4_X
*315 mux_right_ipin_6\.sky130_fd_sc_hd__mux2_1_5_X
*316 mux_right_ipin_6\.sky130_fd_sc_hd__mux2_1_6_X
*317 mux_right_ipin_6\.sky130_fd_sc_hd__mux2_1_7_X
*318 mux_right_ipin_7\.sky130_fd_sc_hd__mux2_1_0_X
*319 mux_right_ipin_7\.sky130_fd_sc_hd__mux2_1_1_X
*320 mux_right_ipin_7\.sky130_fd_sc_hd__mux2_1_2_X
*321 mux_right_ipin_7\.sky130_fd_sc_hd__mux2_1_3_X
*322 mux_right_ipin_7\.sky130_fd_sc_hd__mux2_1_4_X
*323 mux_right_ipin_7\.sky130_fd_sc_hd__mux2_1_5_X
*324 mux_right_ipin_7\.sky130_fd_sc_hd__mux2_1_6_X
*325 mux_right_ipin_7\.sky130_fd_sc_hd__mux2_1_7_X
*326 mux_right_ipin_7\.sky130_fd_sc_hd__mux2_1_8_X
*327 mux_right_ipin_7\.sky130_fd_sc_hd__mux2_1_9_X
*328 mux_right_ipin_8\.sky130_fd_sc_hd__mux2_1_0_X
*329 mux_right_ipin_8\.sky130_fd_sc_hd__mux2_1_1_X
*330 mux_right_ipin_8\.sky130_fd_sc_hd__mux2_1_2_X
*331 mux_right_ipin_8\.sky130_fd_sc_hd__mux2_1_3_X
*332 mux_right_ipin_8\.sky130_fd_sc_hd__mux2_1_4_X
*333 mux_right_ipin_8\.sky130_fd_sc_hd__mux2_1_5_X
*334 mux_right_ipin_8\.sky130_fd_sc_hd__mux2_1_6_X
*335 mux_right_ipin_8\.sky130_fd_sc_hd__mux2_1_7_X
*336 mux_right_ipin_8\.sky130_fd_sc_hd__mux2_1_8_X
*337 mux_right_ipin_8\.sky130_fd_sc_hd__mux2_1_9_X
*338 mux_right_ipin_9\.sky130_fd_sc_hd__mux2_1_0_X
*339 mux_right_ipin_9\.sky130_fd_sc_hd__mux2_1_1_X
*340 mux_right_ipin_9\.sky130_fd_sc_hd__mux2_1_2_X
*341 mux_right_ipin_9\.sky130_fd_sc_hd__mux2_1_3_X
*342 mux_right_ipin_9\.sky130_fd_sc_hd__mux2_1_4_X
*343 mux_right_ipin_9\.sky130_fd_sc_hd__mux2_1_5_X
*344 mux_right_ipin_9\.sky130_fd_sc_hd__mux2_1_6_X
*345 mux_right_ipin_9\.sky130_fd_sc_hd__mux2_1_7_X
*346 ANTENNA_Test_en_E_FTB01_A
*347 ANTENNA_Test_en_N_FTB01_A
*348 ANTENNA_Test_en_W_FTB01_A
*349 ANTENNA__32__A
*350 ANTENNA__33__A
*351 ANTENNA__34__A
*352 ANTENNA__35__A
*353 ANTENNA__36__A
*354 ANTENNA__37__A
*355 ANTENNA__38__A
*356 ANTENNA__39__A
*357 ANTENNA__40__A
*358 ANTENNA__41__A
*359 ANTENNA__42__A
*360 ANTENNA__43__A
*361 ANTENNA__44__A
*362 ANTENNA__45__A
*363 ANTENNA__46__A
*364 ANTENNA__47__A
*365 ANTENNA__48__A
*366 ANTENNA__49__A
*367 ANTENNA__50__A
*368 ANTENNA__51__A
*369 ANTENNA__52__A
*370 ANTENNA__53__A
*371 ANTENNA__54__A
*372 ANTENNA__55__A
*373 ANTENNA__56__A
*374 ANTENNA__57__A
*375 ANTENNA__58__A
*376 ANTENNA__59__A
*377 ANTENNA__60__A
*378 ANTENNA__61__A
*379 ANTENNA__62__A
*380 ANTENNA__63__A
*381 ANTENNA__64__A
*382 ANTENNA__65__A
*383 ANTENNA__66__A
*384 ANTENNA__67__A
*385 ANTENNA__68__A
*386 ANTENNA__69__A
*387 ANTENNA__70__A
*388 ANTENNA__71__A
*389 ANTENNA_clk_2_N_FTB01_A
*390 ANTENNA_clk_2_S_FTB01_A
*391 ANTENNA_clk_3_N_FTB01_A
*392 ANTENNA_clk_3_S_FTB01_A
*393 ANTENNA_mem_right_ipin_0\.sky130_fd_sc_hd__dfxtp_1_0__CLK
*394 ANTENNA_mem_right_ipin_0\.sky130_fd_sc_hd__dfxtp_1_0__D
*395 ANTENNA_mem_right_ipin_0\.sky130_fd_sc_hd__dfxtp_1_1__CLK
*396 ANTENNA_mem_right_ipin_0\.sky130_fd_sc_hd__dfxtp_1_2__CLK
*397 ANTENNA_mem_right_ipin_0\.sky130_fd_sc_hd__dfxtp_1_3__CLK
*398 ANTENNA_mem_right_ipin_1\.sky130_fd_sc_hd__dfxtp_1_0__CLK
*399 ANTENNA_mem_right_ipin_1\.sky130_fd_sc_hd__dfxtp_1_1__CLK
*400 ANTENNA_mem_right_ipin_1\.sky130_fd_sc_hd__dfxtp_1_2__CLK
*401 ANTENNA_mem_right_ipin_1\.sky130_fd_sc_hd__dfxtp_1_3__CLK
*402 ANTENNA_mem_right_ipin_10\.sky130_fd_sc_hd__dfxtp_1_0__CLK
*403 ANTENNA_mem_right_ipin_10\.sky130_fd_sc_hd__dfxtp_1_1__CLK
*404 ANTENNA_mem_right_ipin_10\.sky130_fd_sc_hd__dfxtp_1_2__CLK
*405 ANTENNA_mem_right_ipin_10\.sky130_fd_sc_hd__dfxtp_1_3__CLK
*406 ANTENNA_mem_right_ipin_10\.sky130_fd_sc_hd__dfxtp_1_3__D
*407 ANTENNA_mem_right_ipin_11\.sky130_fd_sc_hd__dfxtp_1_0__CLK
*408 ANTENNA_mem_right_ipin_11\.sky130_fd_sc_hd__dfxtp_1_1__CLK
*409 ANTENNA_mem_right_ipin_11\.sky130_fd_sc_hd__dfxtp_1_2__CLK
*410 ANTENNA_mem_right_ipin_11\.sky130_fd_sc_hd__dfxtp_1_3__CLK
*411 ANTENNA_mem_right_ipin_12\.sky130_fd_sc_hd__dfxtp_1_0__CLK
*412 ANTENNA_mem_right_ipin_12\.sky130_fd_sc_hd__dfxtp_1_1__CLK
*413 ANTENNA_mem_right_ipin_12\.sky130_fd_sc_hd__dfxtp_1_2__CLK
*414 ANTENNA_mem_right_ipin_12\.sky130_fd_sc_hd__dfxtp_1_3__CLK
*415 ANTENNA_mem_right_ipin_13\.sky130_fd_sc_hd__dfxtp_1_0__CLK
*416 ANTENNA_mem_right_ipin_13\.sky130_fd_sc_hd__dfxtp_1_1__CLK
*417 ANTENNA_mem_right_ipin_13\.sky130_fd_sc_hd__dfxtp_1_2__CLK
*418 ANTENNA_mem_right_ipin_13\.sky130_fd_sc_hd__dfxtp_1_3__CLK
*419 ANTENNA_mem_right_ipin_14\.sky130_fd_sc_hd__dfxtp_1_0__CLK
*420 ANTENNA_mem_right_ipin_14\.sky130_fd_sc_hd__dfxtp_1_1__CLK
*421 ANTENNA_mem_right_ipin_14\.sky130_fd_sc_hd__dfxtp_1_2__CLK
*422 ANTENNA_mem_right_ipin_14\.sky130_fd_sc_hd__dfxtp_1_3__CLK
*423 ANTENNA_mem_right_ipin_15\.sky130_fd_sc_hd__dfxtp_1_0__CLK
*424 ANTENNA_mem_right_ipin_15\.sky130_fd_sc_hd__dfxtp_1_1__CLK
*425 ANTENNA_mem_right_ipin_15\.sky130_fd_sc_hd__dfxtp_1_2__CLK
*426 ANTENNA_mem_right_ipin_15\.sky130_fd_sc_hd__dfxtp_1_3__CLK
*427 ANTENNA_mem_right_ipin_2\.sky130_fd_sc_hd__dfxtp_1_0__CLK
*428 ANTENNA_mem_right_ipin_2\.sky130_fd_sc_hd__dfxtp_1_1__CLK
*429 ANTENNA_mem_right_ipin_2\.sky130_fd_sc_hd__dfxtp_1_2__CLK
*430 ANTENNA_mem_right_ipin_2\.sky130_fd_sc_hd__dfxtp_1_3__CLK
*431 ANTENNA_mem_right_ipin_3\.sky130_fd_sc_hd__dfxtp_1_0__CLK
*432 ANTENNA_mem_right_ipin_3\.sky130_fd_sc_hd__dfxtp_1_1__CLK
*433 ANTENNA_mem_right_ipin_3\.sky130_fd_sc_hd__dfxtp_1_1__D
*434 ANTENNA_mem_right_ipin_3\.sky130_fd_sc_hd__dfxtp_1_2__CLK
*435 ANTENNA_mem_right_ipin_3\.sky130_fd_sc_hd__dfxtp_1_3__CLK
*436 ANTENNA_mem_right_ipin_4\.sky130_fd_sc_hd__dfxtp_1_0__CLK
*437 ANTENNA_mem_right_ipin_4\.sky130_fd_sc_hd__dfxtp_1_1__CLK
*438 ANTENNA_mem_right_ipin_4\.sky130_fd_sc_hd__dfxtp_1_2__CLK
*439 ANTENNA_mem_right_ipin_4\.sky130_fd_sc_hd__dfxtp_1_2__D
*440 ANTENNA_mem_right_ipin_4\.sky130_fd_sc_hd__dfxtp_1_3__CLK
*441 ANTENNA_mem_right_ipin_5\.sky130_fd_sc_hd__dfxtp_1_0__CLK
*442 ANTENNA_mem_right_ipin_5\.sky130_fd_sc_hd__dfxtp_1_1__CLK
*443 ANTENNA_mem_right_ipin_5\.sky130_fd_sc_hd__dfxtp_1_2__CLK
*444 ANTENNA_mem_right_ipin_5\.sky130_fd_sc_hd__dfxtp_1_3__CLK
*445 ANTENNA_mem_right_ipin_6\.sky130_fd_sc_hd__dfxtp_1_0__CLK
*446 ANTENNA_mem_right_ipin_6\.sky130_fd_sc_hd__dfxtp_1_1__CLK
*447 ANTENNA_mem_right_ipin_6\.sky130_fd_sc_hd__dfxtp_1_2__CLK
*448 ANTENNA_mem_right_ipin_6\.sky130_fd_sc_hd__dfxtp_1_3__CLK
*449 ANTENNA_mem_right_ipin_7\.sky130_fd_sc_hd__dfxtp_1_0__CLK
*450 ANTENNA_mem_right_ipin_7\.sky130_fd_sc_hd__dfxtp_1_1__CLK
*451 ANTENNA_mem_right_ipin_7\.sky130_fd_sc_hd__dfxtp_1_2__CLK
*452 ANTENNA_mem_right_ipin_7\.sky130_fd_sc_hd__dfxtp_1_3__CLK
*453 ANTENNA_mem_right_ipin_8\.sky130_fd_sc_hd__dfxtp_1_0__CLK
*454 ANTENNA_mem_right_ipin_8\.sky130_fd_sc_hd__dfxtp_1_1__CLK
*455 ANTENNA_mem_right_ipin_8\.sky130_fd_sc_hd__dfxtp_1_2__CLK
*456 ANTENNA_mem_right_ipin_8\.sky130_fd_sc_hd__dfxtp_1_3__CLK
*457 ANTENNA_mem_right_ipin_9\.sky130_fd_sc_hd__dfxtp_1_0__CLK
*458 ANTENNA_mem_right_ipin_9\.sky130_fd_sc_hd__dfxtp_1_1__CLK
*459 ANTENNA_mem_right_ipin_9\.sky130_fd_sc_hd__dfxtp_1_2__CLK
*460 ANTENNA_mem_right_ipin_9\.sky130_fd_sc_hd__dfxtp_1_3__CLK
*461 ANTENNA_mux_right_ipin_0\.mux_l1_in_0__A0
*462 ANTENNA_mux_right_ipin_0\.mux_l1_in_0__A1
*463 ANTENNA_mux_right_ipin_0\.mux_l1_in_1__A0
*464 ANTENNA_mux_right_ipin_0\.mux_l1_in_1__A1
*465 ANTENNA_mux_right_ipin_0\.mux_l1_in_2__A0
*466 ANTENNA_mux_right_ipin_0\.mux_l1_in_2__A1
*467 ANTENNA_mux_right_ipin_0\.mux_l2_in_1__A0
*468 ANTENNA_mux_right_ipin_0\.mux_l2_in_2__A0
*469 ANTENNA_mux_right_ipin_0\.mux_l2_in_2__A1
*470 ANTENNA_mux_right_ipin_0\.mux_l2_in_3__A1
*471 ANTENNA_mux_right_ipin_1\.mux_l1_in_0__A0
*472 ANTENNA_mux_right_ipin_1\.mux_l1_in_0__A1
*473 ANTENNA_mux_right_ipin_1\.mux_l2_in_0__A0
*474 ANTENNA_mux_right_ipin_1\.mux_l2_in_1__A0
*475 ANTENNA_mux_right_ipin_1\.mux_l2_in_1__A1
*476 ANTENNA_mux_right_ipin_1\.mux_l2_in_2__A0
*477 ANTENNA_mux_right_ipin_1\.mux_l2_in_2__A1
*478 ANTENNA_mux_right_ipin_1\.mux_l2_in_3__A1
*479 ANTENNA_mux_right_ipin_10\.mux_l1_in_0__A0
*480 ANTENNA_mux_right_ipin_10\.mux_l1_in_0__A1
*481 ANTENNA_mux_right_ipin_10\.mux_l2_in_0__A0
*482 ANTENNA_mux_right_ipin_10\.mux_l2_in_1__A0
*483 ANTENNA_mux_right_ipin_10\.mux_l2_in_1__A1
*484 ANTENNA_mux_right_ipin_10\.mux_l2_in_2__A0
*485 ANTENNA_mux_right_ipin_10\.mux_l2_in_2__A1
*486 ANTENNA_mux_right_ipin_10\.mux_l2_in_3__A1
*487 ANTENNA_mux_right_ipin_10\.mux_l3_in_0__S
*488 ANTENNA_mux_right_ipin_10\.mux_l3_in_1__S
*489 ANTENNA_mux_right_ipin_11\.mux_l1_in_0__A0
*490 ANTENNA_mux_right_ipin_11\.mux_l1_in_0__A1
*491 ANTENNA_mux_right_ipin_11\.mux_l1_in_1__A0
*492 ANTENNA_mux_right_ipin_11\.mux_l1_in_1__A1
*493 ANTENNA_mux_right_ipin_11\.mux_l1_in_2__A0
*494 ANTENNA_mux_right_ipin_11\.mux_l1_in_2__A1
*495 ANTENNA_mux_right_ipin_11\.mux_l2_in_1__A0
*496 ANTENNA_mux_right_ipin_11\.mux_l2_in_2__A0
*497 ANTENNA_mux_right_ipin_11\.mux_l2_in_2__A1
*498 ANTENNA_mux_right_ipin_11\.mux_l2_in_3__A1
*499 ANTENNA_mux_right_ipin_12\.mux_l1_in_0__A0
*500 ANTENNA_mux_right_ipin_12\.mux_l1_in_0__A1
*501 ANTENNA_mux_right_ipin_12\.mux_l1_in_1__A0
*502 ANTENNA_mux_right_ipin_12\.mux_l1_in_1__A1
*503 ANTENNA_mux_right_ipin_12\.mux_l1_in_2__A0
*504 ANTENNA_mux_right_ipin_12\.mux_l1_in_2__A1
*505 ANTENNA_mux_right_ipin_12\.mux_l2_in_1__A0
*506 ANTENNA_mux_right_ipin_12\.mux_l2_in_2__A0
*507 ANTENNA_mux_right_ipin_12\.mux_l2_in_2__A1
*508 ANTENNA_mux_right_ipin_12\.mux_l2_in_3__A1
*509 ANTENNA_mux_right_ipin_13\.mux_l1_in_0__A0
*510 ANTENNA_mux_right_ipin_13\.mux_l1_in_0__A1
*511 ANTENNA_mux_right_ipin_13\.mux_l2_in_0__A0
*512 ANTENNA_mux_right_ipin_13\.mux_l2_in_1__A0
*513 ANTENNA_mux_right_ipin_13\.mux_l2_in_1__A1
*514 ANTENNA_mux_right_ipin_13\.mux_l2_in_2__A0
*515 ANTENNA_mux_right_ipin_13\.mux_l2_in_2__A1
*516 ANTENNA_mux_right_ipin_13\.mux_l2_in_3__A1
*517 ANTENNA_mux_right_ipin_14\.mux_l1_in_0__A0
*518 ANTENNA_mux_right_ipin_14\.mux_l1_in_0__A1
*519 ANTENNA_mux_right_ipin_14\.mux_l2_in_0__A0
*520 ANTENNA_mux_right_ipin_14\.mux_l2_in_1__A0
*521 ANTENNA_mux_right_ipin_14\.mux_l2_in_1__A1
*522 ANTENNA_mux_right_ipin_14\.mux_l2_in_2__A0
*523 ANTENNA_mux_right_ipin_14\.mux_l2_in_2__A1
*524 ANTENNA_mux_right_ipin_14\.mux_l2_in_3__A1
*525 ANTENNA_mux_right_ipin_15\.mux_l1_in_0__A0
*526 ANTENNA_mux_right_ipin_15\.mux_l1_in_0__A1
*527 ANTENNA_mux_right_ipin_15\.mux_l1_in_1__A0
*528 ANTENNA_mux_right_ipin_15\.mux_l1_in_1__A1
*529 ANTENNA_mux_right_ipin_15\.mux_l1_in_2__A0
*530 ANTENNA_mux_right_ipin_15\.mux_l1_in_2__A1
*531 ANTENNA_mux_right_ipin_15\.mux_l2_in_1__A0
*532 ANTENNA_mux_right_ipin_15\.mux_l2_in_2__A0
*533 ANTENNA_mux_right_ipin_15\.mux_l2_in_2__A1
*534 ANTENNA_mux_right_ipin_15\.mux_l2_in_3__A1
*535 ANTENNA_mux_right_ipin_15\.mux_l4_in_0__S
*536 ANTENNA_mux_right_ipin_2\.mux_l1_in_0__A0
*537 ANTENNA_mux_right_ipin_2\.mux_l1_in_0__A1
*538 ANTENNA_mux_right_ipin_2\.mux_l2_in_0__A0
*539 ANTENNA_mux_right_ipin_2\.mux_l2_in_1__A0
*540 ANTENNA_mux_right_ipin_2\.mux_l2_in_1__A1
*541 ANTENNA_mux_right_ipin_2\.mux_l2_in_2__A0
*542 ANTENNA_mux_right_ipin_2\.mux_l2_in_2__A1
*543 ANTENNA_mux_right_ipin_2\.mux_l2_in_3__A1
*544 ANTENNA_mux_right_ipin_3\.mux_l1_in_0__A0
*545 ANTENNA_mux_right_ipin_3\.mux_l1_in_0__A1
*546 ANTENNA_mux_right_ipin_3\.mux_l1_in_0__S
*547 ANTENNA_mux_right_ipin_3\.mux_l1_in_1__A0
*548 ANTENNA_mux_right_ipin_3\.mux_l1_in_1__A1
*549 ANTENNA_mux_right_ipin_3\.mux_l1_in_1__S
*550 ANTENNA_mux_right_ipin_3\.mux_l1_in_2__A0
*551 ANTENNA_mux_right_ipin_3\.mux_l1_in_2__A1
*552 ANTENNA_mux_right_ipin_3\.mux_l1_in_2__S
*553 ANTENNA_mux_right_ipin_3\.mux_l2_in_1__A0
*554 ANTENNA_mux_right_ipin_3\.mux_l2_in_2__A0
*555 ANTENNA_mux_right_ipin_3\.mux_l2_in_2__A1
*556 ANTENNA_mux_right_ipin_3\.mux_l2_in_3__A1
*557 ANTENNA_mux_right_ipin_4\.mux_l1_in_0__A0
*558 ANTENNA_mux_right_ipin_4\.mux_l1_in_0__A1
*559 ANTENNA_mux_right_ipin_4\.mux_l1_in_1__A0
*560 ANTENNA_mux_right_ipin_4\.mux_l1_in_1__A1
*561 ANTENNA_mux_right_ipin_4\.mux_l1_in_2__A0
*562 ANTENNA_mux_right_ipin_4\.mux_l1_in_2__A1
*563 ANTENNA_mux_right_ipin_4\.mux_l2_in_0__S
*564 ANTENNA_mux_right_ipin_4\.mux_l2_in_1__A0
*565 ANTENNA_mux_right_ipin_4\.mux_l2_in_1__S
*566 ANTENNA_mux_right_ipin_4\.mux_l2_in_2__A0
*567 ANTENNA_mux_right_ipin_4\.mux_l2_in_2__A1
*568 ANTENNA_mux_right_ipin_4\.mux_l2_in_2__S
*569 ANTENNA_mux_right_ipin_4\.mux_l2_in_3__A1
*570 ANTENNA_mux_right_ipin_4\.mux_l2_in_3__S
*571 ANTENNA_mux_right_ipin_5\.mux_l1_in_0__A0
*572 ANTENNA_mux_right_ipin_5\.mux_l1_in_0__A1
*573 ANTENNA_mux_right_ipin_5\.mux_l2_in_0__A0
*574 ANTENNA_mux_right_ipin_5\.mux_l2_in_1__A0
*575 ANTENNA_mux_right_ipin_5\.mux_l2_in_1__A1
*576 ANTENNA_mux_right_ipin_5\.mux_l2_in_2__A0
*577 ANTENNA_mux_right_ipin_5\.mux_l2_in_2__A1
*578 ANTENNA_mux_right_ipin_5\.mux_l2_in_3__A1
*579 ANTENNA_mux_right_ipin_6\.mux_l1_in_0__A0
*580 ANTENNA_mux_right_ipin_6\.mux_l1_in_0__A1
*581 ANTENNA_mux_right_ipin_6\.mux_l2_in_0__A0
*582 ANTENNA_mux_right_ipin_6\.mux_l2_in_1__A0
*583 ANTENNA_mux_right_ipin_6\.mux_l2_in_1__A1
*584 ANTENNA_mux_right_ipin_6\.mux_l2_in_2__A0
*585 ANTENNA_mux_right_ipin_6\.mux_l2_in_2__A1
*586 ANTENNA_mux_right_ipin_6\.mux_l2_in_3__A1
*587 ANTENNA_mux_right_ipin_7\.mux_l1_in_0__A0
*588 ANTENNA_mux_right_ipin_7\.mux_l1_in_0__A1
*589 ANTENNA_mux_right_ipin_7\.mux_l1_in_1__A0
*590 ANTENNA_mux_right_ipin_7\.mux_l1_in_1__A1
*591 ANTENNA_mux_right_ipin_7\.mux_l1_in_2__A0
*592 ANTENNA_mux_right_ipin_7\.mux_l1_in_2__A1
*593 ANTENNA_mux_right_ipin_7\.mux_l2_in_1__A0
*594 ANTENNA_mux_right_ipin_7\.mux_l2_in_2__A0
*595 ANTENNA_mux_right_ipin_7\.mux_l2_in_2__A1
*596 ANTENNA_mux_right_ipin_7\.mux_l2_in_3__A1
*597 ANTENNA_mux_right_ipin_8\.mux_l1_in_0__A0
*598 ANTENNA_mux_right_ipin_8\.mux_l1_in_0__A1
*599 ANTENNA_mux_right_ipin_8\.mux_l1_in_1__A0
*600 ANTENNA_mux_right_ipin_8\.mux_l1_in_1__A1
*601 ANTENNA_mux_right_ipin_8\.mux_l1_in_2__A0
*602 ANTENNA_mux_right_ipin_8\.mux_l1_in_2__A1
*603 ANTENNA_mux_right_ipin_8\.mux_l2_in_1__A0
*604 ANTENNA_mux_right_ipin_8\.mux_l2_in_2__A0
*605 ANTENNA_mux_right_ipin_8\.mux_l2_in_2__A1
*606 ANTENNA_mux_right_ipin_8\.mux_l2_in_3__A1
*607 ANTENNA_mux_right_ipin_9\.mux_l1_in_0__A0
*608 ANTENNA_mux_right_ipin_9\.mux_l1_in_0__A1
*609 ANTENNA_mux_right_ipin_9\.mux_l2_in_0__A0
*610 ANTENNA_mux_right_ipin_9\.mux_l2_in_1__A0
*611 ANTENNA_mux_right_ipin_9\.mux_l2_in_1__A1
*612 ANTENNA_mux_right_ipin_9\.mux_l2_in_2__A0
*613 ANTENNA_mux_right_ipin_9\.mux_l2_in_2__A1
*614 ANTENNA_mux_right_ipin_9\.mux_l2_in_3__A1
*615 ANTENNA_prog_clk_0_FTB00_A
*616 ANTENNA_prog_clk_0_N_FTB01_A
*617 ANTENNA_prog_clk_0_S_FTB01_A
*618 ANTENNA_prog_clk_2_N_FTB01_A
*619 ANTENNA_prog_clk_2_S_FTB01_A
*620 ANTENNA_prog_clk_3_N_FTB01_A
*621 ANTENNA_prog_clk_3_S_FTB01_A
*622 FILLER_0_105
*623 FILLER_0_131
*624 FILLER_0_29
*625 FILLER_0_3
*626 FILLER_0_52
*627 FILLER_0_57
*628 FILLER_0_65
*629 FILLER_0_69
*630 FILLER_0_7
*631 FILLER_0_72
*632 FILLER_0_76
*633 FILLER_0_80
*634 FILLER_0_91
*635 FILLER_10_109
*636 FILLER_10_121
*637 FILLER_10_124
*638 FILLER_10_137
*639 FILLER_10_141
*640 FILLER_10_145
*641 FILLER_10_158
*642 FILLER_10_25
*643 FILLER_10_29
*644 FILLER_10_67
*645 FILLER_10_79
*646 FILLER_10_83
*647 FILLER_10_85
*648 FILLER_10_88
*649 FILLER_11_102
*650 FILLER_11_110
*651 FILLER_11_122
*652 FILLER_11_125
*653 FILLER_11_130
*654 FILLER_11_15
*655 FILLER_11_156
*656 FILLER_11_3
*657 FILLER_11_38
*658 FILLER_11_46
*659 FILLER_11_57
*660 FILLER_11_76
*661 FILLER_12_106
*662 FILLER_12_11
*663 FILLER_12_110
*664 FILLER_12_138
*665 FILLER_12_141
*666 FILLER_12_151
*667 FILLER_12_158
*668 FILLER_12_3
*669 FILLER_12_47
*670 FILLER_12_85
*671 FILLER_13_109
*672 FILLER_13_113
*673 FILLER_13_117
*674 FILLER_13_127
*675 FILLER_13_130
*676 FILLER_13_145
*677 FILLER_13_18
*678 FILLER_13_35
*679 FILLER_14_107
*680 FILLER_14_11
*681 FILLER_14_111
*682 FILLER_14_139
*683 FILLER_14_141
*684 FILLER_14_155
*685 FILLER_14_3
*686 FILLER_14_31
*687 FILLER_14_37
*688 FILLER_14_49
*689 FILLER_14_68
*690 FILLER_14_72
*691 FILLER_14_75
*692 FILLER_14_83
*693 FILLER_14_85
*694 FILLER_15_10
*695 FILLER_15_107
*696 FILLER_15_111
*697 FILLER_15_113
*698 FILLER_15_125
*699 FILLER_15_128
*700 FILLER_15_14
*701 FILLER_15_3
*702 FILLER_15_33
*703 FILLER_15_39
*704 FILLER_15_42
*705 FILLER_15_54
*706 FILLER_16_107
*707 FILLER_16_111
*708 FILLER_16_134
*709 FILLER_16_139
*710 FILLER_16_141
*711 FILLER_16_156
*712 FILLER_16_21
*713 FILLER_16_27
*714 FILLER_16_29
*715 FILLER_16_3
*716 FILLER_16_35
*717 FILLER_16_54
*718 FILLER_16_66
*719 FILLER_16_78
*720 FILLER_16_85
*721 FILLER_17_101
*722 FILLER_17_111
*723 FILLER_17_122
*724 FILLER_17_130
*725 FILLER_17_145
*726 FILLER_17_157
*727 FILLER_17_16
*728 FILLER_17_3
*729 FILLER_17_77
*730 FILLER_17_89
*731 FILLER_18_106
*732 FILLER_18_114
*733 FILLER_18_13
*734 FILLER_18_136
*735 FILLER_18_141
*736 FILLER_18_155
*737 FILLER_18_27
*738 FILLER_18_3
*739 FILLER_18_63
*740 FILLER_18_85
*741 FILLER_19_107
*742 FILLER_19_124
*743 FILLER_19_132
*744 FILLER_19_142
*745 FILLER_19_154
*746 FILLER_19_158
*747 FILLER_19_55
*748 FILLER_19_75
*749 FILLER_19_87
*750 FILLER_1_100
*751 FILLER_1_117
*752 FILLER_1_158
*753 FILLER_1_17
*754 FILLER_1_3
*755 FILLER_1_59
*756 FILLER_20_104
*757 FILLER_20_118
*758 FILLER_20_124
*759 FILLER_20_128
*760 FILLER_20_18
*761 FILLER_20_26
*762 FILLER_20_29
*763 FILLER_20_3
*764 FILLER_20_67
*765 FILLER_20_85
*766 FILLER_21_10
*767 FILLER_21_105
*768 FILLER_21_109
*769 FILLER_21_158
*770 FILLER_21_3
*771 FILLER_21_36
*772 FILLER_21_43
*773 FILLER_21_53
*774 FILLER_21_57
*775 FILLER_21_65
*776 FILLER_21_68
*777 FILLER_21_74
*778 FILLER_21_93
*779 FILLER_22_107
*780 FILLER_22_11
*781 FILLER_22_115
*782 FILLER_22_125
*783 FILLER_22_139
*784 FILLER_22_3
*785 FILLER_22_31
*786 FILLER_22_43
*787 FILLER_22_83
*788 FILLER_22_85
*789 FILLER_23_110
*790 FILLER_23_122
*791 FILLER_23_137
*792 FILLER_23_142
*793 FILLER_23_149
*794 FILLER_23_18
*795 FILLER_23_37
*796 FILLER_23_75
*797 FILLER_24_105
*798 FILLER_24_111
*799 FILLER_24_114
*800 FILLER_24_124
*801 FILLER_24_141
*802 FILLER_24_153
*803 FILLER_24_17
*804 FILLER_24_24
*805 FILLER_24_29
*806 FILLER_24_3
*807 FILLER_24_33
*808 FILLER_24_85
*809 FILLER_25_102
*810 FILLER_25_131
*811 FILLER_25_151
*812 FILLER_25_18
*813 FILLER_25_3
*814 FILLER_25_37
*815 FILLER_25_53
*816 FILLER_25_61
*817 FILLER_25_70
*818 FILLER_25_84
*819 FILLER_25_91
*820 FILLER_26_139
*821 FILLER_26_158
*822 FILLER_26_21
*823 FILLER_26_39
*824 FILLER_26_55
*825 FILLER_27_110
*826 FILLER_27_117
*827 FILLER_27_128
*828 FILLER_27_143
*829 FILLER_27_155
*830 FILLER_27_20
*831 FILLER_27_27
*832 FILLER_27_3
*833 FILLER_27_41
*834 FILLER_27_46
*835 FILLER_27_52
*836 FILLER_27_55
*837 FILLER_27_57
*838 FILLER_27_63
*839 FILLER_27_72
*840 FILLER_27_85
*841 FILLER_27_93
*842 FILLER_27_98
*843 FILLER_2_147
*844 FILLER_2_20
*845 FILLER_2_24
*846 FILLER_2_29
*847 FILLER_2_3
*848 FILLER_2_32
*849 FILLER_2_77
*850 FILLER_3_104
*851 FILLER_3_109
*852 FILLER_3_113
*853 FILLER_3_129
*854 FILLER_3_141
*855 FILLER_3_18
*856 FILLER_3_43
*857 FILLER_3_54
*858 FILLER_3_59
*859 FILLER_4_12
*860 FILLER_4_132
*861 FILLER_4_27
*862 FILLER_4_29
*863 FILLER_4_3
*864 FILLER_4_32
*865 FILLER_4_46
*866 FILLER_4_60