*SPEF "ieee 1481-1999"
*DESIGN "cby_0__1_"
*DATE "11:11:11 Fri 11 11, 1111"
*VENDOR "OpenRCX"
*PROGRAM "Parallel Extraction"
*VERSION "1.0"
*DESIGN_FLOW "NAME_SCOPE LOCAL" "PIN_CAP NONE"
*DIVIDER /
*DELIMITER :
*BUS_DELIMITER []
*T_UNIT 1 NS
*C_UNIT 1 PF
*R_UNIT 1 OHM
*L_UNIT 1 HENRY

*NAME_MAP
*1 IO_ISOL_N
*4 ccff_head
*5 ccff_tail
*6 chany_bottom_in[0]
*7 chany_bottom_in[10]
*8 chany_bottom_in[11]
*9 chany_bottom_in[12]
*10 chany_bottom_in[13]
*11 chany_bottom_in[14]
*12 chany_bottom_in[15]
*13 chany_bottom_in[16]
*14 chany_bottom_in[17]
*15 chany_bottom_in[18]
*16 chany_bottom_in[19]
*17 chany_bottom_in[1]
*18 chany_bottom_in[2]
*19 chany_bottom_in[3]
*20 chany_bottom_in[4]
*21 chany_bottom_in[5]
*22 chany_bottom_in[6]
*23 chany_bottom_in[7]
*24 chany_bottom_in[8]
*25 chany_bottom_in[9]
*26 chany_bottom_out[0]
*27 chany_bottom_out[10]
*28 chany_bottom_out[11]
*29 chany_bottom_out[12]
*30 chany_bottom_out[13]
*31 chany_bottom_out[14]
*32 chany_bottom_out[15]
*33 chany_bottom_out[16]
*34 chany_bottom_out[17]
*35 chany_bottom_out[18]
*36 chany_bottom_out[19]
*37 chany_bottom_out[1]
*38 chany_bottom_out[2]
*39 chany_bottom_out[3]
*40 chany_bottom_out[4]
*41 chany_bottom_out[5]
*42 chany_bottom_out[6]
*43 chany_bottom_out[7]
*44 chany_bottom_out[8]
*45 chany_bottom_out[9]
*46 chany_top_in[0]
*47 chany_top_in[10]
*48 chany_top_in[11]
*49 chany_top_in[12]
*50 chany_top_in[13]
*51 chany_top_in[14]
*52 chany_top_in[15]
*53 chany_top_in[16]
*54 chany_top_in[17]
*55 chany_top_in[18]
*56 chany_top_in[19]
*57 chany_top_in[1]
*58 chany_top_in[2]
*59 chany_top_in[3]
*60 chany_top_in[4]
*61 chany_top_in[5]
*62 chany_top_in[6]
*63 chany_top_in[7]
*64 chany_top_in[8]
*65 chany_top_in[9]
*66 chany_top_out[0]
*67 chany_top_out[10]
*68 chany_top_out[11]
*69 chany_top_out[12]
*70 chany_top_out[13]
*71 chany_top_out[14]
*72 chany_top_out[15]
*73 chany_top_out[16]
*74 chany_top_out[17]
*75 chany_top_out[18]
*76 chany_top_out[19]
*77 chany_top_out[1]
*78 chany_top_out[2]
*79 chany_top_out[3]
*80 chany_top_out[4]
*81 chany_top_out[5]
*82 chany_top_out[6]
*83 chany_top_out[7]
*84 chany_top_out[8]
*85 chany_top_out[9]
*86 gfpga_pad_EMBEDDED_IO_HD_SOC_DIR
*87 gfpga_pad_EMBEDDED_IO_HD_SOC_IN
*88 gfpga_pad_EMBEDDED_IO_HD_SOC_OUT
*89 left_grid_pin_0_
*90 prog_clk_0_E_in
*91 right_width_0_height_0__pin_0_
*92 right_width_0_height_0__pin_1_lower
*93 right_width_0_height_0__pin_1_upper
*94 _00_
*95 logical_tile_io_mode_io__0\.ccff_head
*96 logical_tile_io_mode_io__0\.ltile_phy_iopad_0\.EMBEDDED_IO_HD_0_\.SOC_DIR_N
*97 logical_tile_io_mode_io__0\.ltile_phy_iopad_0\.EMBEDDED_IO_HD_sky130_fd_sc_hd__dfxtp_1_mem\.prog_clk
*98 mem_right_ipin_0\.mem_out\[0\]
*99 mem_right_ipin_0\.mem_out\[1\]
*100 mem_right_ipin_0\.mem_out\[2\]
*101 mux_right_ipin_0\.sky130_fd_sc_hd__mux2_1_0_X
*102 mux_right_ipin_0\.sky130_fd_sc_hd__mux2_1_1_X
*103 mux_right_ipin_0\.sky130_fd_sc_hd__mux2_1_2_X
*104 mux_right_ipin_0\.sky130_fd_sc_hd__mux2_1_3_X
*105 mux_right_ipin_0\.sky130_fd_sc_hd__mux2_1_4_X
*106 mux_right_ipin_0\.sky130_fd_sc_hd__mux2_1_5_X
*107 mux_right_ipin_0\.sky130_fd_sc_hd__mux2_1_6_X
*108 mux_right_ipin_0\.sky130_fd_sc_hd__mux2_1_7_X
*109 mux_right_ipin_0\.sky130_fd_sc_hd__mux2_1_8_X
*110 mux_right_ipin_0\.sky130_fd_sc_hd__mux2_1_9_X
*111 ANTENNA__02__A
*112 ANTENNA__03__A
*113 ANTENNA__04__A
*114 ANTENNA__05__A
*115 ANTENNA__06__A
*116 ANTENNA__07__A
*117 ANTENNA__08__A
*118 ANTENNA__09__A
*119 ANTENNA__10__A
*120 ANTENNA__11__A
*121 ANTENNA__12__A
*122 ANTENNA__13__A
*123 ANTENNA__14__A
*124 ANTENNA__15__A
*125 ANTENNA__16__A
*126 ANTENNA__17__A
*127 ANTENNA__18__A
*128 ANTENNA__19__A
*129 ANTENNA__20__A
*130 ANTENNA__21__A
*131 ANTENNA__22__A
*132 ANTENNA__23__A
*133 ANTENNA__24__A
*134 ANTENNA__25__A
*135 ANTENNA__26__A
*136 ANTENNA__27__A
*137 ANTENNA__28__A
*138 ANTENNA__29__A
*139 ANTENNA__30__A
*140 ANTENNA__31__A
*141 ANTENNA__32__A
*142 ANTENNA__33__A
*143 ANTENNA__34__A
*144 ANTENNA__35__A
*145 ANTENNA__36__A
*146 ANTENNA__37__A
*147 ANTENNA__38__A
*148 ANTENNA__39__A
*149 ANTENNA__40__A
*150 ANTENNA__41__A
*151 ANTENNA__42__A
*152 ANTENNA_logical_tile_io_mode_io__0\.ltile_phy_iopad_0\.EMBEDDED_IO_HD_0_\.IN_PROTECT_GATE_A
*153 ANTENNA_logical_tile_io_mode_io__0\.ltile_phy_iopad_0\.EMBEDDED_IO_HD_0_\.ISOL_EN_GATE_B_N
*154 ANTENNA_logical_tile_io_mode_io__0\.ltile_phy_iopad_0\.EMBEDDED_IO_HD_0_\.OUT_PROTECT_GATE_A
*155 ANTENNA_mem_right_ipin_0\.sky130_fd_sc_hd__dfxtp_1_0__D
*156 ANTENNA_mux_right_ipin_0\.mux_l1_in_0__A0
*157 ANTENNA_mux_right_ipin_0\.mux_l1_in_0__A1
*158 ANTENNA_mux_right_ipin_0\.mux_l1_in_1__A0
*159 ANTENNA_mux_right_ipin_0\.mux_l1_in_1__A1
*160 ANTENNA_mux_right_ipin_0\.mux_l1_in_2__A0
*161 ANTENNA_mux_right_ipin_0\.mux_l1_in_2__A1
*162 ANTENNA_mux_right_ipin_0\.mux_l2_in_1__A0
*163 ANTENNA_mux_right_ipin_0\.mux_l2_in_2__A0
*164 ANTENNA_mux_right_ipin_0\.mux_l2_in_2__A1
*165 ANTENNA_mux_right_ipin_0\.mux_l2_in_3__A1
*166 ANTENNA_prog_clk_0_FTB00_A
*167 FILLER_0_109
*168 FILLER_0_113
*169 FILLER_0_125
*170 FILLER_0_137
*171 FILLER_0_141
*172 FILLER_0_15
*173 FILLER_0_153
*174 FILLER_0_27
*175 FILLER_0_29
*176 FILLER_0_3
*177 FILLER_0_41
*178 FILLER_0_53
*179 FILLER_0_57
*180 FILLER_0_69
*181 FILLER_0_81
*182 FILLER_0_85
*183 FILLER_0_97
*184 FILLER_10_109
*185 FILLER_10_121
*186 FILLER_10_133
*187 FILLER_10_139
*188 FILLER_10_141
*189 FILLER_10_15
*190 FILLER_10_153
*191 FILLER_10_27
*192 FILLER_10_29
*193 FILLER_10_3
*194 FILLER_10_41
*195 FILLER_10_53
*196 FILLER_10_65
*197 FILLER_10_77
*198 FILLER_10_83
*199 FILLER_10_85
*200 FILLER_10_97
*201 FILLER_11_100
*202 FILLER_11_127
*203 FILLER_11_139
*204 FILLER_11_15
*205 FILLER_11_151
*206 FILLER_11_27
*207 FILLER_11_3
*208 FILLER_11_39
*209 FILLER_11_51
*210 FILLER_11_55
*211 FILLER_11_57
*212 FILLER_11_74
*213 FILLER_11_88
*214 FILLER_12_100
*215 FILLER_12_112
*216 FILLER_12_124
*217 FILLER_12_136
*218 FILLER_12_141
*219 FILLER_12_153
*220 FILLER_12_17
*221 FILLER_12_25
*222 FILLER_12_29
*223 FILLER_12_41
*224 FILLER_12_47
*225 FILLER_12_5
*226 FILLER_12_50
*227 FILLER_12_54
*228 FILLER_12_58
*229 FILLER_12_78
*230 FILLER_12_83
*231 FILLER_12_89
*232 FILLER_13_111
*233 FILLER_13_117
*234 FILLER_13_130
*235 FILLER_13_142
*236 FILLER_13_154
*237 FILLER_13_158
*238 FILLER_13_16
*239 FILLER_13_28
*240 FILLER_13_40
*241 FILLER_13_96
*242 FILLER_14_138
*243 FILLER_14_141
*244 FILLER_14_15
*245 FILLER_14_153
*246 FILLER_14_27
*247 FILLER_14_29
*248 FILLER_14_3
*249 FILLER_14_37
*250 FILLER_14_65
*251 FILLER_14_85
*252 FILLER_15_104
*253 FILLER_15_110
*254 FILLER_15_115
*255 FILLER_15_118
*256 FILLER_15_122
*257 FILLER_15_134
*258 FILLER_15_146
*259 FILLER_15_15
*260 FILLER_15_158
*261 FILLER_15_23
*262 FILLER_15_28
*263 FILLER_15_3
*264 FILLER_15_40
*265 FILLER_15_45
*266 FILLER_16_108
*267 FILLER_16_120
*268 FILLER_16_132
*269 FILLER_16_141
*270 FILLER_16_15
*271 FILLER_16_153
*272 FILLER_16_27
*273 FILLER_16_29
*274 FILLER_16_3
*275 FILLER_16_41
*276 FILLER_16_49
*277 FILLER_16_54
*278 FILLER_16_96
*279 FILLER_17_100
*280 FILLER_17_113
*281 FILLER_17_125
*282 FILLER_17_137
*283 FILLER_17_149
*284 FILLER_17_15
*285 FILLER_17_157
*286 FILLER_17_27
*287 FILLER_17_3
*288 FILLER_17_39
*289 FILLER_17_51
*290 FILLER_17_55
*291 FILLER_17_57
*292 FILLER_17_63
*293 FILLER_17_74
*294 FILLER_17_88
*295 FILLER_18_107
*296 FILLER_18_119
*297 FILLER_18_131
*298 FILLER_18_139
*299 FILLER_18_141
*300 FILLER_18_15
*301 FILLER_18_153
*302 FILLER_18_27
*303 FILLER_18_29
*304 FILLER_18_3
*305 FILLER_18_49
*306 FILLER_18_61
*307 FILLER_18_67
*308 FILLER_18_76
*309 FILLER_18_85
*310 FILLER_18_95
*311 FILLER_19_107
*312 FILLER_19_111
*313 FILLER_19_113
*314 FILLER_19_125
*315 FILLER_19_137
*316 FILLER_19_147
*317 FILLER_19_15
*318 FILLER_19_27
*319 FILLER_19_3
*320 FILLER_19_55
*321 FILLER_19_59
*322 FILLER_19_71
*323 FILLER_19_83
*324 FILLER_19_95
*325 FILLER_1_105
*326 FILLER_1_111
*327 FILLER_1_113
*328 FILLER_1_125
*329 FILLER_1_137
*330 FILLER_1_149
*331 FILLER_1_15
*332 FILLER_1_157
*333 FILLER_1_27
*334 FILLER_1_3
*335 FILLER_1_39
*336 FILLER_1_51
*337 FILLER_1_55
*338 FILLER_1_57
*339 FILLER_1_69
*340 FILLER_1_81
*341 FILLER_1_93
*342 FILLER_20_109
*343 FILLER_20_121
*344 FILLER_20_133
*345 FILLER_20_139
*346 FILLER_20_141
*347 FILLER_20_15
*348 FILLER_20_153
*349 FILLER_20_27
*350 FILLER_20_29
*351 FILLER_20_3
*352 FILLER_20_41
*353 FILLER_20_53
*354 FILLER_20_65
*355 FILLER_20_77
*356 FILLER_20_83
*357 FILLER_20_85
*358 FILLER_20_97
*359 FILLER_21_105
*360 FILLER_21_111
*361 FILLER_21_113
*362 FILLER_21_125
*363 FILLER_21_137
*364 FILLER_21_149
*365 FILLER_21_15
*366 FILLER_21_157
*367 FILLER_21_27
*368 FILLER_21_3
*369 FILLER_21_46
*370 FILLER_21_54
*371 FILLER_21_57
*372 FILLER_21_69
*373 FILLER_21_81
*374 FILLER_21_93
*375 FILLER_22_109
*376 FILLER_22_121
*377 FILLER_22_133
*378 FILLER_22_139
*379 FILLER_22_141
*380 FILLER_22_15
*381 FILLER_22_153
*382 FILLER_22_27
*383 FILLER_22_29
*384 FILLER_22_3
*385 FILLER_22_41
*386 FILLER_22_53
*387 FILLER_22_65
*388 FILLER_22_77
*389 FILLER_22_83
*390 FILLER_22_85
*391 FILLER_22_97
*392 FILLER_23_105
*393 FILLER_23_111
*394 FILLER_23_113
*395 FILLER_23_125
*396 FILLER_23_137
*397 FILLER_23_149
*398 FILLER_23_15
*399 FILLER_23_157
*400 FILLER_23_27
*401 FILLER_23_3
*402 FILLER_23_39
*403 FILLER_23_51
*404 FILLER_23_55
*405 FILLER_23_57
*406 FILLER_23_69
*407 FILLER_23_81
*408 FILLER_23_93
*409 FILLER_24_109
*410 FILLER_24_121
*411 FILLER_24_133
*412 FILLER_24_139
*413 FILLER_24_141
*414 FILLER_24_15
*415 FILLER_24_153
*416 FILLER_24_27
*417 FILLER_24_29
*418 FILLER_24_3
*419 FILLER_24_41
*420 FILLER_24_53
*421 FILLER_24_65
*422 FILLER_24_77
*423 FILLER_24_83
*424 FILLER_24_85
*425 FILLER_24_97
*426 FILLER_25_105
*427 FILLER_25_111
*428 FILLER_25_113
*429 FILLER_25_125
*430 FILLER_25_137
*431 FILLER_25_149
*432 FILLER_25_15
*433 FILLER_25_157
*434 FILLER_25_27
*435 FILLER_25_3
*436 FILLER_25_39
*437 FILLER_25_51
*438 FILLER_25_55
*439 FILLER_25_57
*440 FILLER_25_69
*441 FILLER_25_81
*442 FILLER_25_93
*443 FILLER_26_109
*444 FILLER_26_121
*445 FILLER_26_133
*446 FILLER_26_139
*447 FILLER_26_141
*448 FILLER_26_15
*449 FILLER_26_153
*450 FILLER_26_27
*451 FILLER_26_29
*452 FILLER_26_3
*453 FILLER_26_41
*454 FILLER_26_53
*455 FILLER_26_65
*456 FILLER_26_77
*457 FILLER_26_83
*458 FILLER_26_85
*459 FILLER_26_97
*460 FILLER_27_109
*461 FILLER_27_113
*462 FILLER_27_125
*463 FILLER_27_137
*464 FILLER_27_141
*465 FILLER_27_15
*466 FILLER_27_153
*467 FILLER_27_27
*468 FILLER_27_29
*469 FILLER_27_3
*470 FILLER_27_41
*471 FILLER_27_53
*472 FILLER_27_57
*473 FILLER_27_69
*474 FILLER_27_81
*475 FILLER_27_85
*476 FILLER_27_97
*477 FILLER_2_109
*478 FILLER_2_121
*479 FILLER_2_133
*480 FILLER_2_139
*481 FILLER_2_141
*482 FILLER_2_15
*483 FILLER_2_153
*484 FILLER_2_27
*485 FILLER_2_29
*486 FILLER_2_3
*487 FILLER_2_41
*488 FILLER_2_53
*489 FILLER_2_65
*490 FILLER_2_77
*491 FILLER_2_83
*492 FILLER_2_85
*493 FILLER_2_97
*494 FILLER_3_105
*495 FILLER_3_111
*496 FILLER_3_113
*497 FILLER_3_125
*498 FILLER_3_137
*499 FILLER_3_149
*500 FILLER_3_15
*501 FILLER_3_157
*502 FILLER_3_27
*503 FILLER_3_3
*504 FILLER_3_39
*505 FILLER_3_51
*506 FILLER_3_55
*507 FILLER_3_57
*508 FILLER_3_69
*509 FILLER_3_81
*510 FILLER_3_93
*511 FILLER_4_109
*512 FILLER_4_121
*513 FILLER_4_133
*514 FILLER_4_139
*515 FILLER_4_141
*516 FILLER_4_15
*517 FILLER_4_153
*518 FILLER_4_27
*519 FILLER_4_29
*520 FILLER_4_3
*521 FILLER_4_41
*522 FILLER_4_53
*523 FILLER_4_65
*524 FILLER_4_77
*525 FILLER_4_83
*526 FILLER_4_85
*527 FILLER_4_97
*528 FILLER_5_105
*529 FILLER_5_111
*530 FILLER_5_113
*531 FILLER_5_125
*532 FILLER_5_137
*533 FILLER_5_149
*534 FILLER_5_15
*535 FILLER_5_157
*536 FILLER_5_27
*537 FILLER_5_3
*538 FILLER_5_39
*539 FILLER_5_51
*540 FILLER_5_55
*541 FILLER_5_57
*542 FILLER_5_69
*543 FILLER_5_81
*544 FILLER_5_93
*545 FILLER_6_109
*546 FILLER_6_121
*547 FILLER_6_133
*548 FILLER_6_139
*549 FILLER_6_141
*550 FILLER_6_15
*551 FILLER_6_153
*552 FILLER_6_27
*553 FILLER_6_29
*554 FILLER_6_3
*555 FILLER_6_41
*556 FILLER_6_53
*557 FILLER_6_65
*558 FILLER_6_77
*559 FILLER_6_83
*560 FILLER_6_85
*561 FILLER_6_97
*562 FILLER_7_105
*563 FILLER_7_111
*564 FILLER_7_113
*565 FILLER_7_125
*566 FILLER_7_137
*567 FILLER_7_149
*568 FILLER_7_15
*569 FILLER_7_157
*570 FILLER_7_27
*571 FILLER_7_3
*572 FILLER_7_39
*573 FILLER_7_51
*574 FILLER_7_55
*575 FILLER_7_57
*576 FILLER_7_69
*577 FILLER_7_81
*578 FILLER_7_93
*579 FILLER_8_109
*580 FILLER_8_121
*581 FILLER_8_133
*582 FILLER_8_139
*583 FILLER_8_141
*584 FILLER_8_15
*585 FILLER_8_153
*586 FILLER_8_27
*587 FILLER_8_29
*588 FILLER_8_3
*589 FILLER_8_41
*590 FILLER_8_53
*591 FILLER_8_65
*592 FILLER_8_77
*593 FILLER_8_83
*594 FILLER_8_85
*595 FILLER_8_97
*596 FILLER_9_106
*597 FILLER_9_113
*598 FILLER_9_125
*599 FILLER_9_137
*600 FILLER_9_149
*601 FILLER_9_15
*602 FILLER_9_157
*603 FILLER_9_27
*604 FILLER_9_3
*605 FILLER_9_35
*606 FILLER_9_55
*607 FILLER_9_57
*608 FILLER_9_65
*609 FILLER_9_74
*610 FILLER_9_86
*611 FILLER_9_94
*612 PHY_0
*613 PHY_1
*614 PHY_10
*615 PHY_11
*616 PHY_12
*617 PHY_13
*618 PHY_14
*619 PHY_15
*620 PHY_16
*621 PHY_17
*622 PHY_18
*623 PHY_19
*624 PHY_2
*625 PHY_20
*626 PHY_21
*627 PHY_22
*628 PHY_23
*629 PHY_24
*630 PHY_25
*631 PHY_26
*632 PHY_27
*633 PHY_28
*634 PHY_29
*635 PHY_3
*636 PHY_30
*637 PHY_31
*638 PHY_32
*639 PHY_33
*640 PHY_34
*641 PHY_35
*642 PHY_36
*643 PHY_37
*644 PHY_38
*645 PHY_39
*646 PHY_4
*647 PHY_40
*648 PHY_41
*649 PHY_42
*650 PHY_43
*651 PHY_44
*652 PHY_45
*653 PHY_46
*654 PHY_47
*655 PHY_48
*656 PHY_49
*657 PHY_5
*658 PHY_50
*659 PHY_51
*660 PHY_52
*661 PHY_53
*662 PHY_54
*663 PHY_55
*664 PHY_6
*665 PHY_7
*666 PHY_8
*667 PHY_9
*668 TAP_100
*669 TAP_101
*670 TAP_102
*671 TAP_103
*672 TAP_104
*673 TAP_105
*674 TAP_106
*675 TAP_107
*676 TAP_108
*677 TAP_109
*678 TAP_110
*679 TAP_111
*680 TAP_112
*681 TAP_113
*682 TAP_114
*683 TAP_115
*684 TAP_116
*685 TAP_117
*686 TAP_118
*687 TAP_119
*688 TAP_120
*689 TAP_121
*690 TAP_122
*691 TAP_123
*692 TAP_124
*693 TAP_125
*694 TAP_126
*695 TAP_127
*696 TAP_128
*697 TAP_129
*698 TAP_130
*699 TAP_56
*700 TAP_57
*701 TAP_58
*702 TAP_59
*703 TAP_60
*704 TAP_61
*705 TAP_62
*706 TAP_63
*707 TAP_64
*708 TAP_65
*709 TAP_66
*710 TAP_67
*711 TAP_68
*712 TAP_69
*713 TAP_70
*714 TAP_71
*715 TAP_72
*716 TAP_73
*717 TAP_74
*718 TAP_75
*719 TAP_76
*720 TAP_77
*721 TAP_78
*722 TAP_79
*723 TAP_80
*724 TAP_81
*725 TAP_82
*726 TAP_83
*727 TAP_84
*728 TAP_85
*729 TAP_86
*730 TAP_87
*731 TAP_88
*732 TAP_89
*733 TAP_90
*734 TAP_91
*735 TAP_92
*736 TAP_93
*737 TAP_94
*738 TAP_95
*739 TAP_96
*740 TAP_97
*741 TAP_98
*742 TAP_99
*743 _01_
*744 _02_
*745 _03_
*746 _04_
*747 _05_
*748 _06_
*749 _07_
*750 _08_
*751 _09_
*752 _10_
*753 _11_
*754 _12_
*755 _13_
*756 _14_
*757 _15_
*758 _16_
*759 _17_
*760 _18_
*761 _19_
*762 _20_
*763 _21_
*764 _22_
*765 _23_
*766 _24_
*767 _25_
*768 _26_
*769 _27_
*770 _28_
*771 _29_
*772 _30_
*773 _31_
*774 _32_
*775 _33_
*776 _34_
*777 _35_
*778 _36_
*779 _37_
*780 _38_
*781 _39_
*782 _40_
*783 _41_
*784 _42_
*785 logical_tile_io_mode_io__0\.ltile_phy_iopad_0\.EMBEDDED_IO_HD_0_\.INV_SOC_DIR
*786 logical_tile_io_mode_io__0\.ltile_phy_iopad_0\.EMBEDDED_IO_HD_0_\.IN_PROTECT_GATE
*787 logical_tile_io_mode_io__0\.ltile_phy_iopad_0\.EMBEDDED_IO_HD_0_\.ISOL_EN_GATE
*788 logical_tile_io_mode_io__0\.ltile_phy_iopad_0\.EMBEDDED_IO_HD_0_\.OUT_PROTECT_GATE
*789 logical_tile_io_mode_io__0\.ltile_phy_iopad_0\.EMBEDDED_IO_HD_sky130_fd_sc_hd__dfxtp_1_mem\.sky130_fd_sc_hd__dfxtp_1_0_
*790 mem_right_ipin_0\.sky130_fd_sc_hd__dfxtp_1_0_
*791 mem_right_ipin_0\.sky130_fd_sc_hd__dfxtp_1_1_
*792 mem_right_ipin_0\.sky130_fd_sc_hd__dfxtp_1_2_
*793 mem_right_ipin_0\.sky130_fd_sc_hd__dfxtp_1_3_
*794 mux_right_ipin_0\.mux_l1_in_0_
*795 mux_right_ipin_0\.mux_l1_in_1_
*796 mux_right_ipin_0\.mux_l1_in_2_
*797 mux_right_ipin_0\.mux_l2_in_0_
*798 mux_right_ipin_0\.mux_l2_in_1_
*799 mux_right_ipin_0\.mux_l2_in_2_
*800 mux_right_ipin_0\.mux_l2_in_3_
*801 mux_right_ipin_0\.mux_l3_in_0_
*802 mux_right_ipin_0\.mux_l3_in_1_
*803 mux_right_ipin_0\.mux_l4_in_0_
*804 mux_right_ipin_0\.sky130_fd_sc_hd__buf_4_0_
*805 prog_clk_0_FTB00

*PORTS
IO_ISOL_N I
ccff_head I
ccff_tail O
chany_bottom_in[0] I
chany_bottom_in[10] I
chany_bottom_in[11] I
chany_bottom_in[12] I
chany_bottom_in[13] I
chany_bottom_in[14] I
chany_bottom_in[15] I
chany_bottom_in[16] I
chany_bottom_in[17] I
chany_bottom_in[18] I
chany_bottom_in[19] I
chany_bottom_in[1] I
chany_bottom_in[2] I
chany_bottom_in[3] I
chany_bottom_in[4] I
chany_bottom_in[5] I
chany_bottom_in[6] I
chany_bottom_in[7] I
chany_bottom_in[8] I
chany_bottom_in[9] I
chany_bottom_out[0] O
chany_bottom_out[10] O
chany_bottom_out[11] O
chany_bottom_out[12] O
chany_bottom_out[13] O
chany_bottom_out[14] O
chany_bottom_out[15] O
chany_bottom_out[16] O
chany_bottom_out[17] O
chany_bottom_out[18] O
chany_bottom_out[19] O
chany_bottom_out[1] O
chany_bottom_out[2] O
chany_bottom_out[3] O
chany_bottom_out[4] O
chany_bottom_out[5] O
chany_bottom_out[6] O
chany_bottom_out[7] O
chany_bottom_out[8] O
chany_bottom_out[9] O
chany_top_in[0] I
chany_top_in[10] I
chany_top_in[11] I
chany_top_in[12] I
chany_top_in[13] I
chany_top_in[14] I
chany_top_in[15] I
chany_top_in[16] I
chany_top_in[17] I
chany_top_in[18] I
chany_top_in[19] I
chany_top_in[1] I
chany_top_in[2] I
chany_top_in[3] I
chany_top_in[4] I
chany_top_in[5] I
chany_top_in[6] I
chany_top_in[7] I
chany_top_in[8] I
chany_top_in[9] I
chany_top_out[0] O
chany_top_out[10] O
chany_top_out[11] O
chany_top_out[12] O
chany_top_out[13] O
chany_top_out[14] O
chany_top_out[15] O
chany_top_out[16] O
chany_top_out[17] O
chany_top_out[18] O
chany_top_out[19] O
chany_top_out[1] O
chany_top_out[2] O
chany_top_out[3] O
chany_top_out[4] O
chany_top_out[5] O
chany_top_out[6] O
chany_top_out[7] O
chany_top_out[8] O
chany_top_out[9] O
gfpga_pad_EMBEDDED_IO_HD_SOC_DIR O
gfpga_pad_EMBEDDED_IO_HD_SOC_IN I
gfpga_pad_EMBEDDED_IO_HD_SOC_OUT O
left_grid_pin_0_ O
prog_clk_0_E_in I
right_width_0_height_0__pin_0_ I
right_width_0_height_0__pin_1_lower O
right_width_0_height_0__pin_1_upper O

*D_NET *1 0.00355631
*CONN
*P IO_ISOL_N I
*I *787:B_N I *D sky130_fd_sc_hd__or2b_4
*I *153:DIODE I *D sky130_fd_sc_hd__diode_2
*CAP
1 IO_ISOL_N 0.00170072
2 *787:B_N 7.74342e-05
3 *153:DIODE 0
4 *1:8 0.00177816
5 *787:B_N *86:11 0
6 *1:8 chany_top_out[0] 0
7 *1:8 chany_top_out[1] 0
8 *1:8 *86:11 0
*RES
1 IO_ISOL_N *1:8 41.875 
2 *1:8 *153:DIODE 9.3 
3 *1:8 *787:B_N 10.9786 
*END

*D_NET *4 0.00385146
*CONN
*P ccff_head I
*I *155:DIODE I *D sky130_fd_sc_hd__diode_2
*I *790:D I *D sky130_fd_sc_hd__dfxtp_1
*CAP
1 ccff_head 0.00180744
2 *155:DIODE 0
3 *790:D 0.00011829
4 *4:14 0.00192573
5 *4:14 chany_top_out[5] 0
6 *4:14 chany_top_out[6] 0
7 *4:14 chany_top_out[7] 0
8 *4:14 chany_top_out[8] 0
9 *4:14 *66:13 0
*RES
1 ccff_head *4:14 34.6449 
2 *4:14 *790:D 11.7688 
3 *4:14 *155:DIODE 9.3 
*END

*D_NET *5 0.00665855
*CONN
*P ccff_tail O
*I *787:A I *D sky130_fd_sc_hd__or2b_4
*I *789:Q O *D sky130_fd_sc_hd__dfxtp_1
*CAP
1 ccff_tail 0.00159193
2 *787:A 0.00126644
3 *789:Q 0.000470908
4 *5:8 0.00332927
5 ccff_tail *47:14 0
6 ccff_tail *75:10 0
7 *787:A *72:10 0
8 *787:A *73:11 0
9 *5:8 *775:A 0
10 *5:8 *800:A0 0
11 *5:8 *800:S 0
12 *5:8 *802:A1 0
13 *5:8 *57:11 0
14 *5:8 *72:10 0
15 *5:8 *73:11 0
*RES
1 *789:Q *5:8 24.3 
2 *5:8 ccff_tail 29.313 
3 *5:8 *787:A 40.7643 
*END

*D_NET *6 0.00650274
*CONN
*P chany_bottom_in[0] I
*I *794:A1 I *D sky130_fd_sc_hd__mux2_1
*I *157:DIODE I *D sky130_fd_sc_hd__diode_2
*I *784:A I *D sky130_fd_sc_hd__buf_2
*I *151:DIODE I *D sky130_fd_sc_hd__diode_2
*CAP
1 chany_bottom_in[0] 0.00101161
2 *794:A1 0
3 *157:DIODE 2.0535e-05
4 *784:A 7.89315e-05
5 *151:DIODE 0
6 *6:32 0.000697642
7 *6:24 0.000842884
8 *6:18 0.00152158
9 *6:14 0.00232955
10 *6:14 chany_bottom_out[19] 0
11 *6:14 *17:10 0
12 *6:14 *44:6 0
13 *6:14 *45:8 0
14 *6:18 chany_bottom_out[16] 0
15 *6:18 *789:CLK 0
16 *6:18 *22:14 0
17 *6:18 *24:23 0
18 *6:18 *42:8 0
19 *6:18 *46:35 0
20 *6:18 *98:21 0
21 *6:18 *98:24 0
22 *6:24 *789:CLK 0
23 *6:24 *43:10 0
24 *6:24 *98:11 0
25 *6:24 *98:21 0
26 *6:32 chany_top_out[11] 0
27 *6:32 chany_top_out[12] 0
28 *6:32 *745:A 0
29 *6:32 *57:12 0
30 *6:32 *78:13 0
31 *6:32 *81:10 0
32 *6:32 *98:11 0
*RES
1 chany_bottom_in[0] *6:14 31.4464 
2 *6:14 *6:18 34.4107 
3 *6:18 *6:24 4.375 
4 *6:24 *6:32 22.5179 
5 *6:32 *151:DIODE 9.3 
6 *6:32 *784:A 10.9786 
7 *6:24 *157:DIODE 9.72857 
8 *6:18 *794:A1 9.3 
*END

*D_NET *7 0.00744846
*CONN
*P chany_bottom_in[10] I
*I *753:A I *D sky130_fd_sc_hd__buf_2
*I *120:DIODE I *D sky130_fd_sc_hd__diode_2
*I *162:DIODE I *D sky130_fd_sc_hd__diode_2
*I *798:A0 I *D sky130_fd_sc_hd__mux2_1
*CAP
1 chany_bottom_in[10] 0.00123941
2 *753:A 5.51636e-05
3 *120:DIODE 0
4 *162:DIODE 0
5 *798:A0 0.000208984
6 *7:54 0.00126606
7 *7:18 0.000290696
8 *7:15 0.00222068
9 *7:14 0.00216747
10 *753:A *117:DIODE 0
11 *753:A *20:31 0
12 *753:A *83:8 0
13 *798:A0 *798:S 0
14 *798:A0 *801:A1 0
15 *798:A0 *44:6 0
16 *7:14 right_width_0_height_0__pin_1_lower 0
17 *7:14 *8:7 0
18 *7:14 *9:10 0
19 *7:14 *11:14 0
20 *7:14 *13:10 0
21 *7:14 *19:10 0
22 *7:14 *22:10 0
23 *7:14 *25:10 0
24 *7:15 *18:17 0
25 *7:15 *19:10 0
26 *7:15 *24:23 0
27 *7:15 *25:11 0
28 *7:15 *29:8 0
29 *7:15 *53:32 0
30 *7:54 *117:DIODE 0
31 *7:54 *752:A 0
32 *7:54 *754:A 0
33 *7:54 *795:S 0
34 *7:54 *796:S 0
35 *7:54 *798:S 0
36 *7:54 *801:A1 0
37 *7:54 *802:S 0
38 *7:54 *18:17 0
39 *7:54 *20:31 0
40 *7:54 *22:14 0
41 *7:54 *25:11 0
42 *7:54 *44:6 0
43 *7:54 *53:32 0
44 *7:54 *58:42 0
45 *7:54 *60:31 0
46 *7:54 *62:18 0
47 *7:54 *83:8 0
48 *7:54 *92:39 0
*RES
1 chany_bottom_in[10] *7:14 36 
2 *7:14 *7:15 21.0714 
3 *7:15 *7:18 6.26786 
4 *7:18 *798:A0 22.7464 
5 *7:18 *162:DIODE 9.3 
6 *7:15 *7:54 37.7509 
7 *7:54 *120:DIODE 13.8 
8 *7:54 *753:A 15.0679 
*END

*D_NET *8 0.00491421
*CONN
*P chany_bottom_in[11] I
*I *121:DIODE I *D sky130_fd_sc_hd__diode_2
*I *754:A I *D sky130_fd_sc_hd__buf_2
*CAP
1 chany_bottom_in[11] 0.00162729
2 *121:DIODE 0
3 *754:A 0.000157723
4 *8:8 0.000829818
5 *8:7 0.00229938
6 *754:A *773:A 0
7 *754:A *34:11 0
8 *754:A *53:32 0
9 *754:A *69:13 0
10 *8:7 *9:10 0
11 *8:7 *10:7 0
12 *8:7 *14:13 0
13 *8:7 *16:11 0
14 *8:7 *25:10 0
15 *8:7 *35:11 0
16 *8:7 *90:10 0
17 *8:8 *161:DIODE 0
18 *8:8 *773:A 0
19 *8:8 *34:11 0
20 *7:14 *8:7 0
21 *7:54 *754:A 0
*RES
1 chany_bottom_in[11] *8:7 41.4464 
2 *8:7 *8:8 14.0893 
3 *8:8 *754:A 21.8 
4 *8:8 *121:DIODE 9.3 
*END

*D_NET *9 0.00492574
*CONN
*P chany_bottom_in[12] I
*I *755:A I *D sky130_fd_sc_hd__buf_2
*I *122:DIODE I *D sky130_fd_sc_hd__diode_2
*CAP
1 chany_bottom_in[12] 0.00119262
2 *755:A 0.000195103
3 *122:DIODE 0
4 *9:11 0.00127025
5 *9:10 0.00226777
6 *755:A *773:A 0
7 *755:A *20:5 0
8 *755:A *29:8 0
9 *755:A *65:15 0
10 *9:10 chany_bottom_out[15] 0
11 *9:10 *10:7 0
12 *9:10 *11:14 0
13 *9:10 *22:10 0
14 *9:11 *20:5 0
15 *9:11 *29:8 0
16 *7:14 *9:10 0
17 *8:7 *9:10 0
*RES
1 chany_bottom_in[12] *9:10 34.8393 
2 *9:10 *9:11 24.4107 
3 *9:11 *122:DIODE 13.8 
4 *9:11 *755:A 18.2107 
*END

*D_NET *10 0.00493185
*CONN
*P chany_bottom_in[13] I
*I *123:DIODE I *D sky130_fd_sc_hd__diode_2
*I *756:A I *D sky130_fd_sc_hd__buf_2
*CAP
1 chany_bottom_in[13] 0.00174763
2 *123:DIODE 0
3 *756:A 0.000223318
4 *10:8 0.000718298
5 *10:7 0.00224261
6 *756:A *757:A 0
7 *756:A *758:A 0
8 *756:A *72:10 0
9 *10:7 *11:14 0
10 *10:7 *12:22 0
11 *10:7 *14:13 0
12 *10:8 *758:A 0
13 *10:8 *761:A 0
14 *10:8 *762:A 0
15 *10:8 *15:12 0
16 *10:8 *75:10 0
17 *8:7 *10:7 0
18 *9:10 *10:7 0
*RES
1 chany_bottom_in[13] *10:7 44.1786 
2 *10:7 *10:8 10.3929 
3 *10:8 *756:A 13.9607 
4 *10:8 *123:DIODE 9.3 
*END

*D_NET *11 0.00492538
*CONN
*P chany_bottom_in[14] I
*I *757:A I *D sky130_fd_sc_hd__buf_2
*I *124:DIODE I *D sky130_fd_sc_hd__diode_2
*CAP
1 chany_bottom_in[14] 0.00103555
2 *757:A 0.000258399
3 *124:DIODE 0
4 *11:17 0.00142714
5 *11:14 0.00220429
6 *757:A *758:A 0
7 *11:14 *12:22 0
8 *11:14 *13:10 0
9 *11:17 *12:23 0
10 *11:17 *23:9 0
11 *11:17 *24:10 0
12 *756:A *757:A 0
13 *7:14 *11:14 0
14 *9:10 *11:14 0
15 *10:7 *11:14 0
*RES
1 chany_bottom_in[14] *11:14 31.6964 
2 *11:14 *11:17 31.0357 
3 *11:17 *124:DIODE 9.3 
4 *11:17 *757:A 14.6929 
*END

*D_NET *12 0.00496864
*CONN
*P chany_bottom_in[15] I
*I *758:A I *D sky130_fd_sc_hd__buf_2
*I *125:DIODE I *D sky130_fd_sc_hd__diode_2
*CAP
1 chany_bottom_in[15] 0.00116275
2 *758:A 0.00020629
3 *125:DIODE 0
4 *12:23 0.00132157
5 *12:22 0.00227803
6 *758:A *23:9 0
7 *758:A *34:11 0
8 *12:22 *13:10 0
9 *12:23 *24:10 0
10 *12:23 *25:10 0
11 *12:23 *34:11 0
12 *12:23 *35:11 0
13 *756:A *758:A 0
14 *757:A *758:A 0
15 *10:7 *12:22 0
16 *10:8 *758:A 0
17 *11:14 *12:22 0
18 *11:17 *12:23 0
*RES
1 chany_bottom_in[15] *12:22 35.4464 
2 *12:22 *12:23 25.3214 
3 *12:23 *125:DIODE 13.8 
4 *12:23 *758:A 18.2464 
*END

*D_NET *13 0.00743265
*CONN
*P chany_bottom_in[16] I
*I *163:DIODE I *D sky130_fd_sc_hd__diode_2
*I *759:A I *D sky130_fd_sc_hd__buf_2
*I *126:DIODE I *D sky130_fd_sc_hd__diode_2
*I *799:A0 I *D sky130_fd_sc_hd__mux2_1
*CAP
1 chany_bottom_in[16] 0.0014232
2 *163:DIODE 0
3 *759:A 8.04288e-05
4 *126:DIODE 0
5 *799:A0 0.000329482
6 *13:38 0.000537212
7 *13:31 0.000644883
8 *13:11 0.00175591
9 *13:10 0.00266153
10 *759:A *58:15 0
11 *759:A *62:18 0
12 *799:A0 *797:A1 0
13 *799:A0 *797:S 0
14 *799:A0 *47:38 0
15 *13:10 *14:10 0
16 *13:11 *20:5 0
17 *13:11 *20:17 0
18 *13:11 *30:8 0
19 *13:11 *65:15 0
20 *13:31 *777:A 0
21 *13:31 *797:A0 0
22 *13:31 *30:8 0
23 *13:31 *32:8 0
24 *13:31 *47:16 0
25 *13:31 *48:14 0
26 *13:31 *65:15 0
27 *13:31 *74:10 0
28 *13:38 *775:A 0
29 *13:38 *29:8 0
30 *13:38 *47:30 0
31 *13:38 *48:14 0
32 *13:38 *59:15 0
33 *13:38 *72:10 0
34 *7:14 *13:10 0
35 *11:14 *13:10 0
36 *12:22 *13:10 0
*RES
1 chany_bottom_in[16] *13:10 39.75 
2 *13:10 *13:11 28.0536 
3 *13:11 *799:A0 20.7821 
4 *13:11 *13:31 8.71429 
5 *13:31 *13:38 19.1071 
6 *13:38 *126:DIODE 9.3 
7 *13:38 *759:A 10.9786 
8 *13:31 *163:DIODE 9.3 
*END

*D_NET *14 0.0048268
*CONN
*P chany_bottom_in[17] I
*I *760:A I *D sky130_fd_sc_hd__buf_2
*I *127:DIODE I *D sky130_fd_sc_hd__diode_2
*CAP
1 chany_bottom_in[17] 0.00101142
2 *760:A 0.000243853
3 *127:DIODE 0
4 *14:13 0.00140198
5 *14:10 0.00216955
6 *760:A *782:A 0
7 *760:A *783:A 0
8 *760:A *36:17 0
9 *14:10 *15:11 0
10 *14:10 *16:10 0
11 *14:13 *762:A 0
12 *14:13 *16:11 0
13 *14:13 *76:10 0
14 *8:7 *14:13 0
15 *10:7 *14:13 0
16 *13:10 *14:10 0
*RES
1 chany_bottom_in[17] *14:10 31.3036 
2 *14:10 *14:13 30.7321 
3 *14:13 *127:DIODE 9.3 
4 *14:13 *760:A 14.3893 
*END

*D_NET *15 0.00486024
*CONN
*P chany_bottom_in[18] I
*I *761:A I *D sky130_fd_sc_hd__buf_2
*I *128:DIODE I *D sky130_fd_sc_hd__diode_2
*CAP
1 chany_bottom_in[18] 0.00177
2 *761:A 0.000162141
3 *128:DIODE 0
4 *15:12 0.000660115
5 *15:11 0.00226798
6 *761:A *762:A 0
7 *761:A *76:10 0
8 *15:11 *16:10 0
9 *15:12 *762:A 0
10 *10:8 *761:A 0
11 *10:8 *15:12 0
12 *14:10 *15:11 0
*RES
1 chany_bottom_in[18] *15:11 44.75 
2 *15:11 *15:12 10.3929 
3 *15:12 *128:DIODE 9.3 
4 *15:12 *761:A 12.8714 
*END

*D_NET *16 0.0048471
*CONN
*P chany_bottom_in[19] I
*I *762:A I *D sky130_fd_sc_hd__buf_2
*I *129:DIODE I *D sky130_fd_sc_hd__diode_2
*CAP
1 chany_bottom_in[19] 0.00126095
2 *762:A 0.000127573
3 *129:DIODE 0
4 *16:11 0.0011626
5 *16:10 0.00229598
6 *762:A *35:11 0
7 *16:11 *35:11 0
8 *761:A *762:A 0
9 *8:7 *16:11 0
10 *10:8 *762:A 0
11 *14:10 *16:10 0
12 *14:13 *762:A 0
13 *14:13 *16:11 0
14 *15:11 *16:10 0
15 *15:12 *762:A 0
*RES
1 chany_bottom_in[19] *16:10 36.5357 
2 *16:10 *16:11 23.5 
3 *16:11 *129:DIODE 13.8 
4 *16:11 *762:A 16.6036 
*END

*D_NET *17 0.00513471
*CONN
*P chany_bottom_in[1] I
*I *744:A I *D sky130_fd_sc_hd__buf_2
*I *111:DIODE I *D sky130_fd_sc_hd__diode_2
*CAP
1 chany_bottom_in[1] 0.00138535
2 *744:A 0.000214861
3 *111:DIODE 2.56688e-05
4 *17:11 0.001182
5 *17:10 0.00232683
6 *744:A chany_bottom_out[11] 0
7 *744:A *767:A 0
8 *744:A *803:A1 0
9 *744:A *39:8 0
10 *744:A *84:11 0
11 *17:10 chany_bottom_out[6] 0
12 *17:10 chany_bottom_out[7] 0
13 *17:10 chany_bottom_out[8] 0
14 *17:10 *18:17 0
15 *17:10 *36:23 0
16 *17:10 *45:8 0
17 *17:11 chany_bottom_out[11] 0
18 *17:11 *39:8 0
19 *6:14 *17:10 0
*RES
1 chany_bottom_in[1] *17:10 39.1071 
2 *17:10 *17:11 21.375 
3 *17:11 *111:DIODE 14.3357 
4 *17:11 *744:A 18.6214 
*END

*D_NET *18 0.00691113
*CONN
*P chany_bottom_in[2] I
*I *745:A I *D sky130_fd_sc_hd__buf_2
*I *112:DIODE I *D sky130_fd_sc_hd__diode_2
*I *159:DIODE I *D sky130_fd_sc_hd__diode_2
*I *795:A1 I *D sky130_fd_sc_hd__mux2_1
*CAP
1 chany_bottom_in[2] 0.00215078
2 *745:A 6.43859e-05
3 *112:DIODE 0
4 *159:DIODE 4.53482e-05
5 *795:A1 0.000203639
6 *18:40 0.000919353
7 *18:28 0.00103676
8 *18:17 0.00249086
9 *159:DIODE *800:A0 0
10 *159:DIODE *64:8 0
11 *795:A1 *802:A1 0
12 *18:17 *797:A1 0
13 *18:17 *798:S 0
14 *18:17 *802:A1 0
15 *18:17 *19:10 0
16 *18:17 *24:23 0
17 *18:17 *45:8 0
18 *18:17 *53:32 0
19 *18:17 *57:11 0
20 *18:17 *59:37 0
21 *18:17 *60:42 0
22 *18:28 *57:11 0
23 *18:28 *60:31 0
24 *18:40 *57:11 0
25 *18:40 *60:31 0
26 *18:40 *62:18 0
27 *6:32 *745:A 0
28 *7:15 *18:17 0
29 *7:54 *18:17 0
30 *17:10 *18:17 0
*RES
1 chany_bottom_in[2] *18:17 49.6607 
2 *18:17 *795:A1 18.05 
3 *18:17 *18:28 3.16071 
4 *18:28 *159:DIODE 14.7464 
5 *18:28 *18:40 22.5893 
6 *18:40 *112:DIODE 9.3 
7 *18:40 *745:A 10.675 
*END

*D_NET *19 0.00585361
*CONN
*P chany_bottom_in[3] I
*I *113:DIODE I *D sky130_fd_sc_hd__diode_2
*I *746:A I *D sky130_fd_sc_hd__buf_2
*CAP
1 chany_bottom_in[3] 0.0013972
2 *113:DIODE 9.52765e-05
3 *746:A 6.50276e-05
4 *19:11 0.00152961
5 *19:10 0.0027665
6 *113:DIODE *71:21 0
7 *746:A *57:12 0
8 *19:10 chany_bottom_out[9] 0
9 *19:10 *20:5 0
10 *19:10 *22:10 0
11 *19:10 *29:8 0
12 *19:11 chany_bottom_out[11] 0
13 *19:11 chany_top_out[12] 0
14 *19:11 *21:15 0
15 *19:11 *59:37 0
16 *19:11 *68:20 0
17 *19:11 *71:21 0
18 *7:14 *19:10 0
19 *7:15 *19:10 0
20 *18:17 *19:10 0
*RES
1 chany_bottom_in[3] *19:10 39.2321 
2 *19:10 *19:11 31.0893 
3 *19:11 *746:A 15.1571 
4 *19:11 *113:DIODE 15.9786 
*END

*D_NET *20 0.00716106
*CONN
*P chany_bottom_in[4] I
*I *796:A1 I *D sky130_fd_sc_hd__mux2_1
*I *747:A I *D sky130_fd_sc_hd__buf_2