*SPEF "ieee 1481-1999"
*DESIGN "cby_2__1_"
*DATE "11:11:11 Fri 11 11, 1111"
*VENDOR "OpenRCX"
*PROGRAM "Parallel Extraction"
*VERSION "1.0"
*DESIGN_FLOW "NAME_SCOPE LOCAL" "PIN_CAP NONE"
*DIVIDER /
*DELIMITER :
*BUS_DELIMITER []
*T_UNIT 1 NS
*C_UNIT 1 PF
*R_UNIT 1 OHM
*L_UNIT 1 HENRY

*NAME_MAP
*1 IO_ISOL_N
*4 ccff_head
*5 ccff_tail
*6 chany_bottom_in[0]
*7 chany_bottom_in[10]
*8 chany_bottom_in[11]
*9 chany_bottom_in[12]
*10 chany_bottom_in[13]
*11 chany_bottom_in[14]
*12 chany_bottom_in[15]
*13 chany_bottom_in[16]
*14 chany_bottom_in[17]
*15 chany_bottom_in[18]
*16 chany_bottom_in[19]
*17 chany_bottom_in[1]
*18 chany_bottom_in[2]
*19 chany_bottom_in[3]
*20 chany_bottom_in[4]
*21 chany_bottom_in[5]
*22 chany_bottom_in[6]
*23 chany_bottom_in[7]
*24 chany_bottom_in[8]
*25 chany_bottom_in[9]
*26 chany_bottom_out[0]
*27 chany_bottom_out[10]
*28 chany_bottom_out[11]
*29 chany_bottom_out[12]
*30 chany_bottom_out[13]
*31 chany_bottom_out[14]
*32 chany_bottom_out[15]
*33 chany_bottom_out[16]
*34 chany_bottom_out[17]
*35 chany_bottom_out[18]
*36 chany_bottom_out[19]
*37 chany_bottom_out[1]
*38 chany_bottom_out[2]
*39 chany_bottom_out[3]
*40 chany_bottom_out[4]
*41 chany_bottom_out[5]
*42 chany_bottom_out[6]
*43 chany_bottom_out[7]
*44 chany_bottom_out[8]
*45 chany_bottom_out[9]
*46 chany_top_in[0]
*47 chany_top_in[10]
*48 chany_top_in[11]
*49 chany_top_in[12]
*50 chany_top_in[13]
*51 chany_top_in[14]
*52 chany_top_in[15]
*53 chany_top_in[16]
*54 chany_top_in[17]
*55 chany_top_in[18]
*56 chany_top_in[19]
*57 chany_top_in[1]
*58 chany_top_in[2]
*59 chany_top_in[3]
*60 chany_top_in[4]
*61 chany_top_in[5]
*62 chany_top_in[6]
*63 chany_top_in[7]
*64 chany_top_in[8]
*65 chany_top_in[9]
*66 chany_top_out[0]
*67 chany_top_out[10]
*68 chany_top_out[11]
*69 chany_top_out[12]
*70 chany_top_out[13]
*71 chany_top_out[14]
*72 chany_top_out[15]
*73 chany_top_out[16]
*74 chany_top_out[17]
*75 chany_top_out[18]
*76 chany_top_out[19]
*77 chany_top_out[1]
*78 chany_top_out[2]
*79 chany_top_out[3]
*80 chany_top_out[4]
*81 chany_top_out[5]
*82 chany_top_out[6]
*83 chany_top_out[7]
*84 chany_top_out[8]
*85 chany_top_out[9]
*86 gfpga_pad_EMBEDDED_IO_HD_SOC_DIR
*87 gfpga_pad_EMBEDDED_IO_HD_SOC_IN
*88 gfpga_pad_EMBEDDED_IO_HD_SOC_OUT
*89 left_grid_pin_16_
*90 left_grid_pin_17_
*91 left_grid_pin_18_
*92 left_grid_pin_19_
*93 left_grid_pin_20_
*94 left_grid_pin_21_
*95 left_grid_pin_22_
*96 left_grid_pin_23_
*97 left_grid_pin_24_
*98 left_grid_pin_25_
*99 left_grid_pin_26_
*100 left_grid_pin_27_
*101 left_grid_pin_28_
*102 left_grid_pin_29_
*103 left_grid_pin_30_
*104 left_grid_pin_31_
*105 left_width_0_height_0__pin_0_
*106 left_width_0_height_0__pin_1_lower
*107 left_width_0_height_0__pin_1_upper
*108 prog_clk_0_N_out
*109 prog_clk_0_S_out
*110 prog_clk_0_W_in
*111 right_grid_pin_0_
*112 _00_
*113 _01_
*114 _02_
*115 _03_
*116 _04_
*117 _05_
*118 _06_
*119 _07_
*120 _08_
*121 _09_
*122 _10_
*123 _11_
*124 _12_
*125 _13_
*126 _14_
*127 _15_
*128 _16_
*129 logical_tile_io_mode_io__0\.ccff_head
*130 logical_tile_io_mode_io__0\.ltile_phy_iopad_0\.EMBEDDED_IO_HD_0_\.SOC_DIR_N
*131 logical_tile_io_mode_io__0\.ltile_phy_iopad_0\.EMBEDDED_IO_HD_sky130_fd_sc_hd__dfxtp_1_mem\.prog_clk
*132 mem_left_ipin_0\.ccff_tail
*133 mem_left_ipin_0\.mem_out\[0\]
*134 mem_left_ipin_0\.mem_out\[1\]
*135 mem_left_ipin_0\.mem_out\[2\]
*136 mem_right_ipin_0\.ccff_tail
*137 mem_right_ipin_0\.mem_out\[0\]
*138 mem_right_ipin_0\.mem_out\[1\]
*139 mem_right_ipin_0\.mem_out\[2\]
*140 mem_right_ipin_1\.ccff_tail
*141 mem_right_ipin_1\.mem_out\[0\]
*142 mem_right_ipin_1\.mem_out\[1\]
*143 mem_right_ipin_1\.mem_out\[2\]
*144 mem_right_ipin_10\.ccff_head
*145 mem_right_ipin_10\.ccff_tail
*146 mem_right_ipin_10\.mem_out\[0\]
*147 mem_right_ipin_10\.mem_out\[1\]
*148 mem_right_ipin_10\.mem_out\[2\]
*149 mem_right_ipin_11\.ccff_tail
*150 mem_right_ipin_11\.mem_out\[0\]
*151 mem_right_ipin_11\.mem_out\[1\]
*152 mem_right_ipin_11\.mem_out\[2\]
*153 mem_right_ipin_12\.ccff_tail
*154 mem_right_ipin_12\.mem_out\[0\]
*155 mem_right_ipin_12\.mem_out\[1\]
*156 mem_right_ipin_12\.mem_out\[2\]
*157 mem_right_ipin_13\.ccff_tail
*158 mem_right_ipin_13\.mem_out\[0\]
*159 mem_right_ipin_13\.mem_out\[1\]
*160 mem_right_ipin_13\.mem_out\[2\]
*161 mem_right_ipin_14\.ccff_tail
*162 mem_right_ipin_14\.mem_out\[0\]
*163 mem_right_ipin_14\.mem_out\[1\]
*164 mem_right_ipin_14\.mem_out\[2\]
*165 mem_right_ipin_15\.mem_out\[0\]
*166 mem_right_ipin_15\.mem_out\[1\]
*167 mem_right_ipin_15\.mem_out\[2\]
*168 mem_right_ipin_2\.ccff_tail
*169 mem_right_ipin_2\.mem_out\[0\]
*170 mem_right_ipin_2\.mem_out\[1\]
*171 mem_right_ipin_2\.mem_out\[2\]
*172 mem_right_ipin_3\.ccff_tail
*173 mem_right_ipin_3\.mem_out\[0\]
*174 mem_right_ipin_3\.mem_out\[1\]
*175 mem_right_ipin_3\.mem_out\[2\]
*176 mem_right_ipin_4\.ccff_tail
*177 mem_right_ipin_4\.mem_out\[0\]
*178 mem_right_ipin_4\.mem_out\[1\]
*179 mem_right_ipin_4\.mem_out\[2\]
*180 mem_right_ipin_5\.ccff_tail
*181 mem_right_ipin_5\.mem_out\[0\]
*182 mem_right_ipin_5\.mem_out\[1\]
*183 mem_right_ipin_5\.mem_out\[2\]
*184 mem_right_ipin_6\.ccff_tail
*185 mem_right_ipin_6\.mem_out\[0\]
*186 mem_right_ipin_6\.mem_out\[1\]
*187 mem_right_ipin_6\.mem_out\[2\]
*188 mem_right_ipin_7\.ccff_tail
*189 mem_right_ipin_7\.mem_out\[0\]
*190 mem_right_ipin_7\.mem_out\[1\]
*191 mem_right_ipin_7\.mem_out\[2\]
*192 mem_right_ipin_8\.ccff_tail
*193 mem_right_ipin_8\.mem_out\[0\]
*194 mem_right_ipin_8\.mem_out\[1\]
*195 mem_right_ipin_8\.mem_out\[2\]
*196 mem_right_ipin_9\.mem_out\[0\]
*197 mem_right_ipin_9\.mem_out\[1\]
*198 mem_right_ipin_9\.mem_out\[2\]
*199 mux_left_ipin_0\.sky130_fd_sc_hd__mux2_1_0_X
*200 mux_left_ipin_0\.sky130_fd_sc_hd__mux2_1_1_X
*201 mux_left_ipin_0\.sky130_fd_sc_hd__mux2_1_2_X
*202 mux_left_ipin_0\.sky130_fd_sc_hd__mux2_1_3_X
*203 mux_left_ipin_0\.sky130_fd_sc_hd__mux2_1_4_X
*204 mux_left_ipin_0\.sky130_fd_sc_hd__mux2_1_5_X
*205 mux_left_ipin_0\.sky130_fd_sc_hd__mux2_1_6_X
*206 mux_left_ipin_0\.sky130_fd_sc_hd__mux2_1_7_X
*207 mux_left_ipin_0\.sky130_fd_sc_hd__mux2_1_8_X
*208 mux_left_ipin_0\.sky130_fd_sc_hd__mux2_1_9_X
*209 mux_right_ipin_0\.sky130_fd_sc_hd__mux2_1_0_X
*210 mux_right_ipin_0\.sky130_fd_sc_hd__mux2_1_1_X
*211 mux_right_ipin_0\.sky130_fd_sc_hd__mux2_1_2_X
*212 mux_right_ipin_0\.sky130_fd_sc_hd__mux2_1_3_X
*213 mux_right_ipin_0\.sky130_fd_sc_hd__mux2_1_4_X
*214 mux_right_ipin_0\.sky130_fd_sc_hd__mux2_1_5_X
*215 mux_right_ipin_0\.sky130_fd_sc_hd__mux2_1_6_X
*216 mux_right_ipin_0\.sky130_fd_sc_hd__mux2_1_7_X
*217 mux_right_ipin_0\.sky130_fd_sc_hd__mux2_1_8_X
*218 mux_right_ipin_0\.sky130_fd_sc_hd__mux2_1_9_X
*219 mux_right_ipin_1\.sky130_fd_sc_hd__mux2_1_0_X
*220 mux_right_ipin_1\.sky130_fd_sc_hd__mux2_1_1_X
*221 mux_right_ipin_1\.sky130_fd_sc_hd__mux2_1_2_X
*222 mux_right_ipin_1\.sky130_fd_sc_hd__mux2_1_3_X
*223 mux_right_ipin_1\.sky130_fd_sc_hd__mux2_1_4_X
*224 mux_right_ipin_1\.sky130_fd_sc_hd__mux2_1_5_X
*225 mux_right_ipin_1\.sky130_fd_sc_hd__mux2_1_6_X
*226 mux_right_ipin_1\.sky130_fd_sc_hd__mux2_1_7_X
*227 mux_right_ipin_10\.sky130_fd_sc_hd__mux2_1_0_X
*228 mux_right_ipin_10\.sky130_fd_sc_hd__mux2_1_1_X
*229 mux_right_ipin_10\.sky130_fd_sc_hd__mux2_1_2_X
*230 mux_right_ipin_10\.sky130_fd_sc_hd__mux2_1_3_X
*231 mux_right_ipin_10\.sky130_fd_sc_hd__mux2_1_4_X
*232 mux_right_ipin_10\.sky130_fd_sc_hd__mux2_1_5_X
*233 mux_right_ipin_10\.sky130_fd_sc_hd__mux2_1_6_X
*234 mux_right_ipin_10\.sky130_fd_sc_hd__mux2_1_7_X
*235 mux_right_ipin_11\.sky130_fd_sc_hd__mux2_1_0_X
*236 mux_right_ipin_11\.sky130_fd_sc_hd__mux2_1_1_X
*237 mux_right_ipin_11\.sky130_fd_sc_hd__mux2_1_2_X
*238 mux_right_ipin_11\.sky130_fd_sc_hd__mux2_1_3_X
*239 mux_right_ipin_11\.sky130_fd_sc_hd__mux2_1_4_X
*240 mux_right_ipin_11\.sky130_fd_sc_hd__mux2_1_5_X
*241 mux_right_ipin_11\.sky130_fd_sc_hd__mux2_1_6_X
*242 mux_right_ipin_11\.sky130_fd_sc_hd__mux2_1_7_X
*243 mux_right_ipin_11\.sky130_fd_sc_hd__mux2_1_8_X
*244 mux_right_ipin_11\.sky130_fd_sc_hd__mux2_1_9_X
*245 mux_right_ipin_12\.sky130_fd_sc_hd__mux2_1_0_X
*246 mux_right_ipin_12\.sky130_fd_sc_hd__mux2_1_1_X
*247 mux_right_ipin_12\.sky130_fd_sc_hd__mux2_1_2_X
*248 mux_right_ipin_12\.sky130_fd_sc_hd__mux2_1_3_X
*249 mux_right_ipin_12\.sky130_fd_sc_hd__mux2_1_4_X
*250 mux_right_ipin_12\.sky130_fd_sc_hd__mux2_1_5_X
*251 mux_right_ipin_12\.sky130_fd_sc_hd__mux2_1_6_X
*252 mux_right_ipin_12\.sky130_fd_sc_hd__mux2_1_7_X
*253 mux_right_ipin_12\.sky130_fd_sc_hd__mux2_1_8_X
*254 mux_right_ipin_12\.sky130_fd_sc_hd__mux2_1_9_X
*255 mux_right_ipin_13\.sky130_fd_sc_hd__mux2_1_0_X
*256 mux_right_ipin_13\.sky130_fd_sc_hd__mux2_1_1_X
*257 mux_right_ipin_13\.sky130_fd_sc_hd__mux2_1_2_X
*258 mux_right_ipin_13\.sky130_fd_sc_hd__mux2_1_3_X
*259 mux_right_ipin_13\.sky130_fd_sc_hd__mux2_1_4_X
*260 mux_right_ipin_13\.sky130_fd_sc_hd__mux2_1_5_X
*261 mux_right_ipin_13\.sky130_fd_sc_hd__mux2_1_6_X
*262 mux_right_ipin_13\.sky130_fd_sc_hd__mux2_1_7_X
*263 mux_right_ipin_14\.sky130_fd_sc_hd__mux2_1_0_X
*264 mux_right_ipin_14\.sky130_fd_sc_hd__mux2_1_1_X
*265 mux_right_ipin_14\.sky130_fd_sc_hd__mux2_1_2_X
*266 mux_right_ipin_14\.sky130_fd_sc_hd__mux2_1_3_X
*267 mux_right_ipin_14\.sky130_fd_sc_hd__mux2_1_4_X
*268 mux_right_ipin_14\.sky130_fd_sc_hd__mux2_1_5_X
*269 mux_right_ipin_14\.sky130_fd_sc_hd__mux2_1_6_X
*270 mux_right_ipin_14\.sky130_fd_sc_hd__mux2_1_7_X
*271 mux_right_ipin_15\.sky130_fd_sc_hd__mux2_1_0_X
*272 mux_right_ipin_15\.sky130_fd_sc_hd__mux2_1_1_X
*273 mux_right_ipin_15\.sky130_fd_sc_hd__mux2_1_2_X
*274 mux_right_ipin_15\.sky130_fd_sc_hd__mux2_1_3_X
*275 mux_right_ipin_15\.sky130_fd_sc_hd__mux2_1_4_X
*276 mux_right_ipin_15\.sky130_fd_sc_hd__mux2_1_5_X
*277 mux_right_ipin_15\.sky130_fd_sc_hd__mux2_1_6_X
*278 mux_right_ipin_15\.sky130_fd_sc_hd__mux2_1_7_X
*279 mux_right_ipin_15\.sky130_fd_sc_hd__mux2_1_8_X
*280 mux_right_ipin_15\.sky130_fd_sc_hd__mux2_1_9_X
*281 mux_right_ipin_2\.sky130_fd_sc_hd__mux2_1_0_X
*282 mux_right_ipin_2\.sky130_fd_sc_hd__mux2_1_1_X
*283 mux_right_ipin_2\.sky130_fd_sc_hd__mux2_1_2_X
*284 mux_right_ipin_2\.sky130_fd_sc_hd__mux2_1_3_X
*285 mux_right_ipin_2\.sky130_fd_sc_hd__mux2_1_4_X
*286 mux_right_ipin_2\.sky130_fd_sc_hd__mux2_1_5_X
*287 mux_right_ipin_2\.sky130_fd_sc_hd__mux2_1_6_X
*288 mux_right_ipin_2\.sky130_fd_sc_hd__mux2_1_7_X
*289 mux_right_ipin_3\.sky130_fd_sc_hd__mux2_1_0_X
*290 mux_right_ipin_3\.sky130_fd_sc_hd__mux2_1_1_X
*291 mux_right_ipin_3\.sky130_fd_sc_hd__mux2_1_2_X
*292 mux_right_ipin_3\.sky130_fd_sc_hd__mux2_1_3_X
*293 mux_right_ipin_3\.sky130_fd_sc_hd__mux2_1_4_X
*294 mux_right_ipin_3\.sky130_fd_sc_hd__mux2_1_5_X
*295 mux_right_ipin_3\.sky130_fd_sc_hd__mux2_1_6_X
*296 mux_right_ipin_3\.sky130_fd_sc_hd__mux2_1_7_X
*297 mux_right_ipin_3\.sky130_fd_sc_hd__mux2_1_8_X
*298 mux_right_ipin_3\.sky130_fd_sc_hd__mux2_1_9_X
*299 mux_right_ipin_4\.sky130_fd_sc_hd__mux2_1_0_X
*300 mux_right_ipin_4\.sky130_fd_sc_hd__mux2_1_1_X
*301 mux_right_ipin_4\.sky130_fd_sc_hd__mux2_1_2_X
*302 mux_right_ipin_4\.sky130_fd_sc_hd__mux2_1_3_X
*303 mux_right_ipin_4\.sky130_fd_sc_hd__mux2_1_4_X
*304 mux_right_ipin_4\.sky130_fd_sc_hd__mux2_1_5_X
*305 mux_right_ipin_4\.sky130_fd_sc_hd__mux2_1_6_X
*306 mux_right_ipin_4\.sky130_fd_sc_hd__mux2_1_7_X
*307 mux_right_ipin_4\.sky130_fd_sc_hd__mux2_1_8_X
*308 mux_right_ipin_4\.sky130_fd_sc_hd__mux2_1_9_X
*309 mux_right_ipin_5\.sky130_fd_sc_hd__mux2_1_0_X
*310 mux_right_ipin_5\.sky130_fd_sc_hd__mux2_1_1_X
*311 mux_right_ipin_5\.sky130_fd_sc_hd__mux2_1_2_X
*312 mux_right_ipin_5\.sky130_fd_sc_hd__mux2_1_3_X
*313 mux_right_ipin_5\.sky130_fd_sc_hd__mux2_1_4_X
*314 mux_right_ipin_5\.sky130_fd_sc_hd__mux2_1_5_X
*315 mux_right_ipin_5\.sky130_fd_sc_hd__mux2_1_6_X
*316 mux_right_ipin_5\.sky130_fd_sc_hd__mux2_1_7_X
*317 mux_right_ipin_6\.sky130_fd_sc_hd__mux2_1_0_X
*318 mux_right_ipin_6\.sky130_fd_sc_hd__mux2_1_1_X
*319 mux_right_ipin_6\.sky130_fd_sc_hd__mux2_1_2_X
*320 mux_right_ipin_6\.sky130_fd_sc_hd__mux2_1_3_X
*321 mux_right_ipin_6\.sky130_fd_sc_hd__mux2_1_4_X
*322 mux_right_ipin_6\.sky130_fd_sc_hd__mux2_1_5_X
*323 mux_right_ipin_6\.sky130_fd_sc_hd__mux2_1_6_X
*324 mux_right_ipin_6\.sky130_fd_sc_hd__mux2_1_7_X
*325 mux_right_ipin_7\.sky130_fd_sc_hd__mux2_1_0_X
*326 mux_right_ipin_7\.sky130_fd_sc_hd__mux2_1_1_X
*327 mux_right_ipin_7\.sky130_fd_sc_hd__mux2_1_2_X
*328 mux_right_ipin_7\.sky130_fd_sc_hd__mux2_1_3_X
*329 mux_right_ipin_7\.sky130_fd_sc_hd__mux2_1_4_X
*330 mux_right_ipin_7\.sky130_fd_sc_hd__mux2_1_5_X
*331 mux_right_ipin_7\.sky130_fd_sc_hd__mux2_1_6_X
*332 mux_right_ipin_7\.sky130_fd_sc_hd__mux2_1_7_X
*333 mux_right_ipin_7\.sky130_fd_sc_hd__mux2_1_8_X
*334 mux_right_ipin_7\.sky130_fd_sc_hd__mux2_1_9_X
*335 mux_right_ipin_8\.sky130_fd_sc_hd__mux2_1_0_X
*336 mux_right_ipin_8\.sky130_fd_sc_hd__mux2_1_1_X
*337 mux_right_ipin_8\.sky130_fd_sc_hd__mux2_1_2_X
*338 mux_right_ipin_8\.sky130_fd_sc_hd__mux2_1_3_X
*339 mux_right_ipin_8\.sky130_fd_sc_hd__mux2_1_4_X
*340 mux_right_ipin_8\.sky130_fd_sc_hd__mux2_1_5_X
*341 mux_right_ipin_8\.sky130_fd_sc_hd__mux2_1_6_X
*342 mux_right_ipin_8\.sky130_fd_sc_hd__mux2_1_7_X
*343 mux_right_ipin_8\.sky130_fd_sc_hd__mux2_1_8_X
*344 mux_right_ipin_8\.sky130_fd_sc_hd__mux2_1_9_X
*345 mux_right_ipin_9\.sky130_fd_sc_hd__mux2_1_0_X
*346 mux_right_ipin_9\.sky130_fd_sc_hd__mux2_1_1_X
*347 mux_right_ipin_9\.sky130_fd_sc_hd__mux2_1_2_X
*348 mux_right_ipin_9\.sky130_fd_sc_hd__mux2_1_3_X
*349 mux_right_ipin_9\.sky130_fd_sc_hd__mux2_1_4_X
*350 mux_right_ipin_9\.sky130_fd_sc_hd__mux2_1_5_X
*351 mux_right_ipin_9\.sky130_fd_sc_hd__mux2_1_6_X
*352 mux_right_ipin_9\.sky130_fd_sc_hd__mux2_1_7_X
*353 ANTENNA__34__A
*354 ANTENNA__35__A
*355 ANTENNA__36__A
*356 ANTENNA__37__A
*357 ANTENNA__38__A
*358 ANTENNA__39__A
*359 ANTENNA__40__A
*360 ANTENNA__41__A
*361 ANTENNA__42__A
*362 ANTENNA__43__A
*363 ANTENNA__44__A
*364 ANTENNA__45__A
*365 ANTENNA__46__A
*366 ANTENNA__47__A
*367 ANTENNA__48__A
*368 ANTENNA__49__A
*369 ANTENNA__50__A
*370 ANTENNA__51__A
*371 ANTENNA__52__A
*372 ANTENNA__53__A
*373 ANTENNA__54__A
*374 ANTENNA__55__A
*375 ANTENNA__56__A
*376 ANTENNA__57__A
*377 ANTENNA__58__A
*378 ANTENNA__59__A
*379 ANTENNA__60__A
*380 ANTENNA__61__A
*381 ANTENNA__62__A
*382 ANTENNA__63__A
*383 ANTENNA__64__A
*384 ANTENNA__65__A
*385 ANTENNA__66__A
*386 ANTENNA__67__A
*387 ANTENNA__68__A
*388 ANTENNA__69__A
*389 ANTENNA__70__A
*390 ANTENNA__71__A
*391 ANTENNA__72__A
*392 ANTENNA__73__A
*393 ANTENNA__74__A
*394 ANTENNA_logical_tile_io_mode_io__0\.ltile_phy_iopad_0\.EMBEDDED_IO_HD_0_\.IN_PROTECT_GATE_A
*395 ANTENNA_logical_tile_io_mode_io__0\.ltile_phy_iopad_0\.EMBEDDED_IO_HD_0_\.ISOL_EN_GATE_A
*396 ANTENNA_logical_tile_io_mode_io__0\.ltile_phy_iopad_0\.EMBEDDED_IO_HD_0_\.ISOL_EN_GATE_B_N
*397 ANTENNA_logical_tile_io_mode_io__0\.ltile_phy_iopad_0\.EMBEDDED_IO_HD_0_\.OUT_PROTECT_GATE_A
*398 ANTENNA_logical_tile_io_mode_io__0\.ltile_phy_iopad_0\.EMBEDDED_IO_HD_sky130_fd_sc_hd__dfxtp_1_mem\.sky130_fd_sc_hd__dfxtp_1_0__CLK
*399 ANTENNA_mem_left_ipin_0\.sky130_fd_sc_hd__dfxtp_1_0__CLK
*400 ANTENNA_mem_left_ipin_0\.sky130_fd_sc_hd__dfxtp_1_0__D
*401 ANTENNA_mem_left_ipin_0\.sky130_fd_sc_hd__dfxtp_1_1__CLK
*402 ANTENNA_mem_left_ipin_0\.sky130_fd_sc_hd__dfxtp_1_2__CLK
*403 ANTENNA_mem_left_ipin_0\.sky130_fd_sc_hd__dfxtp_1_3__CLK
*404 ANTENNA_mem_right_ipin_0\.sky130_fd_sc_hd__dfxtp_1_0__CLK
*405 ANTENNA_mem_right_ipin_0\.sky130_fd_sc_hd__dfxtp_1_1__CLK
*406 ANTENNA_mem_right_ipin_0\.sky130_fd_sc_hd__dfxtp_1_2__CLK
*407 ANTENNA_mem_right_ipin_0\.sky130_fd_sc_hd__dfxtp_1_3__CLK
*408 ANTENNA_mem_right_ipin_1\.sky130_fd_sc_hd__dfxtp_1_0__CLK
*409 ANTENNA_mem_right_ipin_1\.sky130_fd_sc_hd__dfxtp_1_1__CLK
*410 ANTENNA_mem_right_ipin_1\.sky130_fd_sc_hd__dfxtp_1_2__CLK
*411 ANTENNA_mem_right_ipin_1\.sky130_fd_sc_hd__dfxtp_1_3__CLK
*412 ANTENNA_mem_right_ipin_10\.sky130_fd_sc_hd__dfxtp_1_0__CLK
*413 ANTENNA_mem_right_ipin_10\.sky130_fd_sc_hd__dfxtp_1_1__CLK
*414 ANTENNA_mem_right_ipin_10\.sky130_fd_sc_hd__dfxtp_1_2__CLK
*415 ANTENNA_mem_right_ipin_10\.sky130_fd_sc_hd__dfxtp_1_3__CLK
*416 ANTENNA_mem_right_ipin_11\.sky130_fd_sc_hd__dfxtp_1_0__CLK
*417 ANTENNA_mem_right_ipin_11\.sky130_fd_sc_hd__dfxtp_1_1__CLK
*418 ANTENNA_mem_right_ipin_11\.sky130_fd_sc_hd__dfxtp_1_2__CLK
*419 ANTENNA_mem_right_ipin_11\.sky130_fd_sc_hd__dfxtp_1_3__CLK
*420 ANTENNA_mem_right_ipin_12\.sky130_fd_sc_hd__dfxtp_1_0__CLK
*421 ANTENNA_mem_right_ipin_12\.sky130_fd_sc_hd__dfxtp_1_1__CLK
*422 ANTENNA_mem_right_ipin_12\.sky130_fd_sc_hd__dfxtp_1_2__CLK
*423 ANTENNA_mem_right_ipin_12\.sky130_fd_sc_hd__dfxtp_1_3__CLK
*424 ANTENNA_mem_right_ipin_13\.sky130_fd_sc_hd__dfxtp_1_0__CLK
*425 ANTENNA_mem_right_ipin_13\.sky130_fd_sc_hd__dfxtp_1_1__CLK
*426 ANTENNA_mem_right_ipin_13\.sky130_fd_sc_hd__dfxtp_1_2__CLK
*427 ANTENNA_mem_right_ipin_13\.sky130_fd_sc_hd__dfxtp_1_3__CLK
*428 ANTENNA_mem_right_ipin_14\.sky130_fd_sc_hd__dfxtp_1_0__CLK
*429 ANTENNA_mem_right_ipin_14\.sky130_fd_sc_hd__dfxtp_1_1__CLK
*430 ANTENNA_mem_right_ipin_14\.sky130_fd_sc_hd__dfxtp_1_2__CLK
*431 ANTENNA_mem_right_ipin_14\.sky130_fd_sc_hd__dfxtp_1_3__CLK
*432 ANTENNA_mem_right_ipin_15\.sky130_fd_sc_hd__dfxtp_1_0__CLK
*433 ANTENNA_mem_right_ipin_15\.sky130_fd_sc_hd__dfxtp_1_1__CLK
*434 ANTENNA_mem_right_ipin_15\.sky130_fd_sc_hd__dfxtp_1_2__CLK
*435 ANTENNA_mem_right_ipin_15\.sky130_fd_sc_hd__dfxtp_1_3__CLK
*436 ANTENNA_mem_right_ipin_2\.sky130_fd_sc_hd__dfxtp_1_0__CLK
*437 ANTENNA_mem_right_ipin_2\.sky130_fd_sc_hd__dfxtp_1_1__CLK
*438 ANTENNA_mem_right_ipin_2\.sky130_fd_sc_hd__dfxtp_1_2__CLK
*439 ANTENNA_mem_right_ipin_2\.sky130_fd_sc_hd__dfxtp_1_3__CLK
*440 ANTENNA_mem_right_ipin_3\.sky130_fd_sc_hd__dfxtp_1_0__CLK
*441 ANTENNA_mem_right_ipin_3\.sky130_fd_sc_hd__dfxtp_1_1__CLK
*442 ANTENNA_mem_right_ipin_3\.sky130_fd_sc_hd__dfxtp_1_2__CLK
*443 ANTENNA_mem_right_ipin_3\.sky130_fd_sc_hd__dfxtp_1_3__CLK
*444 ANTENNA_mem_right_ipin_4\.sky130_fd_sc_hd__dfxtp_1_0__CLK
*445 ANTENNA_mem_right_ipin_4\.sky130_fd_sc_hd__dfxtp_1_1__CLK
*446 ANTENNA_mem_right_ipin_4\.sky130_fd_sc_hd__dfxtp_1_2__CLK
*447 ANTENNA_mem_right_ipin_4\.sky130_fd_sc_hd__dfxtp_1_3__CLK
*448 ANTENNA_mem_right_ipin_5\.sky130_fd_sc_hd__dfxtp_1_0__CLK
*449 ANTENNA_mem_right_ipin_5\.sky130_fd_sc_hd__dfxtp_1_1__CLK
*450 ANTENNA_mem_right_ipin_5\.sky130_fd_sc_hd__dfxtp_1_2__CLK
*451 ANTENNA_mem_right_ipin_5\.sky130_fd_sc_hd__dfxtp_1_3__CLK
*452 ANTENNA_mem_right_ipin_6\.sky130_fd_sc_hd__dfxtp_1_0__CLK
*453 ANTENNA_mem_right_ipin_6\.sky130_fd_sc_hd__dfxtp_1_1__CLK
*454 ANTENNA_mem_right_ipin_6\.sky130_fd_sc_hd__dfxtp_1_2__CLK
*455 ANTENNA_mem_right_ipin_6\.sky130_fd_sc_hd__dfxtp_1_3__CLK
*456 ANTENNA_mem_right_ipin_7\.sky130_fd_sc_hd__dfxtp_1_0__CLK
*457 ANTENNA_mem_right_ipin_7\.sky130_fd_sc_hd__dfxtp_1_1__CLK
*458 ANTENNA_mem_right_ipin_7\.sky130_fd_sc_hd__dfxtp_1_2__CLK
*459 ANTENNA_mem_right_ipin_7\.sky130_fd_sc_hd__dfxtp_1_3__CLK
*460 ANTENNA_mem_right_ipin_8\.sky130_fd_sc_hd__dfxtp_1_0__CLK
*461 ANTENNA_mem_right_ipin_8\.sky130_fd_sc_hd__dfxtp_1_1__CLK
*462 ANTENNA_mem_right_ipin_8\.sky130_fd_sc_hd__dfxtp_1_2__CLK
*463 ANTENNA_mem_right_ipin_8\.sky130_fd_sc_hd__dfxtp_1_3__CLK
*464 ANTENNA_mem_right_ipin_9\.sky130_fd_sc_hd__dfxtp_1_0__CLK
*465 ANTENNA_mem_right_ipin_9\.sky130_fd_sc_hd__dfxtp_1_1__CLK
*466 ANTENNA_mem_right_ipin_9\.sky130_fd_sc_hd__dfxtp_1_2__CLK
*467 ANTENNA_mem_right_ipin_9\.sky130_fd_sc_hd__dfxtp_1_3__CLK
*468 ANTENNA_mux_left_ipin_0\.mux_l1_in_0__A0
*469 ANTENNA_mux_left_ipin_0\.mux_l1_in_0__A1
*470 ANTENNA_mux_left_ipin_0\.mux_l1_in_1__A0
*471 ANTENNA_mux_left_ipin_0\.mux_l1_in_1__A1
*472 ANTENNA_mux_left_ipin_0\.mux_l1_in_2__A0
*473 ANTENNA_mux_left_ipin_0\.mux_l1_in_2__A1
*474 ANTENNA_mux_left_ipin_0\.mux_l2_in_1__A0
*475 ANTENNA_mux_left_ipin_0\.mux_l2_in_2__A0
*476 ANTENNA_mux_left_ipin_0\.mux_l2_in_2__A1
*477 ANTENNA_mux_left_ipin_0\.mux_l2_in_3__A1
*478 ANTENNA_mux_right_ipin_0\.mux_l1_in_0__A0
*479 ANTENNA_mux_right_ipin_0\.mux_l1_in_0__A1
*480 ANTENNA_mux_right_ipin_0\.mux_l1_in_1__A0
*481 ANTENNA_mux_right_ipin_0\.mux_l1_in_1__A1
*482 ANTENNA_mux_right_ipin_0\.mux_l1_in_2__A0
*483 ANTENNA_mux_right_ipin_0\.mux_l1_in_2__A1
*484 ANTENNA_mux_right_ipin_0\.mux_l2_in_1__A0
*485 ANTENNA_mux_right_ipin_0\.mux_l2_in_2__A0
*486 ANTENNA_mux_right_ipin_0\.mux_l2_in_2__A1
*487 ANTENNA_mux_right_ipin_0\.mux_l2_in_3__A1
*488 ANTENNA_mux_right_ipin_1\.mux_l1_in_0__A0
*489 ANTENNA_mux_right_ipin_1\.mux_l1_in_0__A1
*490 ANTENNA_mux_right_ipin_1\.mux_l2_in_0__A0
*491 ANTENNA_mux_right_ipin_1\.mux_l2_in_1__A0
*492 ANTENNA_mux_right_ipin_1\.mux_l2_in_1__A1
*493 ANTENNA_mux_right_ipin_1\.mux_l2_in_2__A0
*494 ANTENNA_mux_right_ipin_1\.mux_l2_in_2__A1
*495 ANTENNA_mux_right_ipin_1\.mux_l2_in_3__A1
*496 ANTENNA_mux_right_ipin_10\.mux_l1_in_0__A0
*497 ANTENNA_mux_right_ipin_10\.mux_l1_in_0__A1
*498 ANTENNA_mux_right_ipin_10\.mux_l2_in_0__A0
*499 ANTENNA_mux_right_ipin_10\.mux_l2_in_1__A0
*500 ANTENNA_mux_right_ipin_10\.mux_l2_in_1__A1
*501 ANTENNA_mux_right_ipin_10\.mux_l2_in_2__A0
*502 ANTENNA_mux_right_ipin_10\.mux_l2_in_2__A1
*503 ANTENNA_mux_right_ipin_10\.mux_l2_in_3__A1
*504 ANTENNA_mux_right_ipin_11\.mux_l1_in_0__A0
*505 ANTENNA_mux_right_ipin_11\.mux_l1_in_0__A1
*506 ANTENNA_mux_right_ipin_11\.mux_l1_in_1__A0
*507 ANTENNA_mux_right_ipin_11\.mux_l1_in_1__A1
*508 ANTENNA_mux_right_ipin_11\.mux_l1_in_2__A0
*509 ANTENNA_mux_right_ipin_11\.mux_l1_in_2__A1
*510 ANTENNA_mux_right_ipin_11\.mux_l2_in_1__A0
*511 ANTENNA_mux_right_ipin_11\.mux_l2_in_2__A0
*512 ANTENNA_mux_right_ipin_11\.mux_l2_in_2__A1
*513 ANTENNA_mux_right_ipin_11\.mux_l2_in_3__A1
*514 ANTENNA_mux_right_ipin_12\.mux_l1_in_0__A0
*515 ANTENNA_mux_right_ipin_12\.mux_l1_in_0__A1
*516 ANTENNA_mux_right_ipin_12\.mux_l1_in_1__A0
*517 ANTENNA_mux_right_ipin_12\.mux_l1_in_1__A1
*518 ANTENNA_mux_right_ipin_12\.mux_l1_in_2__A0
*519 ANTENNA_mux_right_ipin_12\.mux_l1_in_2__A1
*520 ANTENNA_mux_right_ipin_12\.mux_l2_in_1__A0
*521 ANTENNA_mux_right_ipin_12\.mux_l2_in_2__A0
*522 ANTENNA_mux_right_ipin_12\.mux_l2_in_2__A1
*523 ANTENNA_mux_right_ipin_12\.mux_l2_in_3__A1
*524 ANTENNA_mux_right_ipin_13\.mux_l1_in_0__A0
*525 ANTENNA_mux_right_ipin_13\.mux_l1_in_0__A1
*526 ANTENNA_mux_right_ipin_13\.mux_l2_in_0__A0
*527 ANTENNA_mux_right_ipin_13\.mux_l2_in_1__A0
*528 ANTENNA_mux_right_ipin_13\.mux_l2_in_1__A1
*529 ANTENNA_mux_right_ipin_13\.mux_l2_in_2__A0
*530 ANTENNA_mux_right_ipin_13\.mux_l2_in_2__A1
*531 ANTENNA_mux_right_ipin_13\.mux_l2_in_3__A1
*532 ANTENNA_mux_right_ipin_14\.mux_l1_in_0__A0
*533 ANTENNA_mux_right_ipin_14\.mux_l1_in_0__A1
*534 ANTENNA_mux_right_ipin_14\.mux_l2_in_0__A0
*535 ANTENNA_mux_right_ipin_14\.mux_l2_in_1__A0
*536 ANTENNA_mux_right_ipin_14\.mux_l2_in_1__A1
*537 ANTENNA_mux_right_ipin_14\.mux_l2_in_2__A0
*538 ANTENNA_mux_right_ipin_14\.mux_l2_in_2__A1
*539 ANTENNA_mux_right_ipin_14\.mux_l2_in_3__A1
*540 ANTENNA_mux_right_ipin_15\.mux_l1_in_0__A0
*541 ANTENNA_mux_right_ipin_15\.mux_l1_in_0__A1
*542 ANTENNA_mux_right_ipin_15\.mux_l1_in_1__A0
*543 ANTENNA_mux_right_ipin_15\.mux_l1_in_1__A1
*544 ANTENNA_mux_right_ipin_15\.mux_l1_in_2__A0
*545 ANTENNA_mux_right_ipin_15\.mux_l1_in_2__A1
*546 ANTENNA_mux_right_ipin_15\.mux_l2_in_1__A0
*547 ANTENNA_mux_right_ipin_15\.mux_l2_in_2__A0
*548 ANTENNA_mux_right_ipin_15\.mux_l2_in_2__A1
*549 ANTENNA_mux_right_ipin_15\.mux_l2_in_3__A1
*550 ANTENNA_mux_right_ipin_2\.mux_l1_in_0__A0
*551 ANTENNA_mux_right_ipin_2\.mux_l1_in_0__A1
*552 ANTENNA_mux_right_ipin_2\.mux_l2_in_0__A0
*553 ANTENNA_mux_right_ipin_2\.mux_l2_in_1__A0
*554 ANTENNA_mux_right_ipin_2\.mux_l2_in_1__A1
*555 ANTENNA_mux_right_ipin_2\.mux_l2_in_2__A0
*556 ANTENNA_mux_right_ipin_2\.mux_l2_in_2__A1
*557 ANTENNA_mux_right_ipin_2\.mux_l2_in_3__A1
*558 ANTENNA_mux_right_ipin_3\.mux_l1_in_0__A0
*559 ANTENNA_mux_right_ipin_3\.mux_l1_in_0__A1
*560 ANTENNA_mux_right_ipin_3\.mux_l1_in_1__A0
*561 ANTENNA_mux_right_ipin_3\.mux_l1_in_1__A1
*562 ANTENNA_mux_right_ipin_3\.mux_l1_in_2__A0
*563 ANTENNA_mux_right_ipin_3\.mux_l1_in_2__A1
*564 ANTENNA_mux_right_ipin_3\.mux_l2_in_1__A0
*565 ANTENNA_mux_right_ipin_3\.mux_l2_in_2__A0
*566 ANTENNA_mux_right_ipin_3\.mux_l2_in_2__A1
*567 ANTENNA_mux_right_ipin_3\.mux_l2_in_3__A1
*568 ANTENNA_mux_right_ipin_4\.mux_l1_in_0__A0
*569 ANTENNA_mux_right_ipin_4\.mux_l1_in_0__A1
*570 ANTENNA_mux_right_ipin_4\.mux_l1_in_1__A0
*571 ANTENNA_mux_right_ipin_4\.mux_l1_in_1__A1
*572 ANTENNA_mux_right_ipin_4\.mux_l1_in_2__A0
*573 ANTENNA_mux_right_ipin_4\.mux_l1_in_2__A1
*574 ANTENNA_mux_right_ipin_4\.mux_l2_in_1__A0
*575 ANTENNA_mux_right_ipin_4\.mux_l2_in_2__A0
*576 ANTENNA_mux_right_ipin_4\.mux_l2_in_2__A1
*577 ANTENNA_mux_right_ipin_4\.mux_l2_in_3__A1
*578 ANTENNA_mux_right_ipin_5\.mux_l1_in_0__A0
*579 ANTENNA_mux_right_ipin_5\.mux_l1_in_0__A1
*580 ANTENNA_mux_right_ipin_5\.mux_l2_in_0__A0
*581 ANTENNA_mux_right_ipin_5\.mux_l2_in_1__A0
*582 ANTENNA_mux_right_ipin_5\.mux_l2_in_1__A1
*583 ANTENNA_mux_right_ipin_5\.mux_l2_in_2__A0
*584 ANTENNA_mux_right_ipin_5\.mux_l2_in_2__A1
*585 ANTENNA_mux_right_ipin_5\.mux_l2_in_3__A1
*586 ANTENNA_mux_right_ipin_6\.mux_l1_in_0__A0
*587 ANTENNA_mux_right_ipin_6\.mux_l1_in_0__A1
*588 ANTENNA_mux_right_ipin_6\.mux_l2_in_0__A0
*589 ANTENNA_mux_right_ipin_6\.mux_l2_in_1__A0
*590 ANTENNA_mux_right_ipin_6\.mux_l2_in_1__A1
*591 ANTENNA_mux_right_ipin_6\.mux_l2_in_2__A0
*592 ANTENNA_mux_right_ipin_6\.mux_l2_in_2__A1
*593 ANTENNA_mux_right_ipin_6\.mux_l2_in_3__A1
*594 ANTENNA_mux_right_ipin_7\.mux_l1_in_0__A0
*595 ANTENNA_mux_right_ipin_7\.mux_l1_in_0__A1
*596 ANTENNA_mux_right_ipin_7\.mux_l1_in_1__A0
*597 ANTENNA_mux_right_ipin_7\.mux_l1_in_1__A1
*598 ANTENNA_mux_right_ipin_7\.mux_l1_in_2__A0
*599 ANTENNA_mux_right_ipin_7\.mux_l1_in_2__A1
*600 ANTENNA_mux_right_ipin_7\.mux_l2_in_1__A0
*601 ANTENNA_mux_right_ipin_7\.mux_l2_in_2__A0
*602 ANTENNA_mux_right_ipin_7\.mux_l2_in_2__A1
*603 ANTENNA_mux_right_ipin_7\.mux_l2_in_3__A1
*604 ANTENNA_mux_right_ipin_8\.mux_l1_in_0__A0
*605 ANTENNA_mux_right_ipin_8\.mux_l1_in_0__A1
*606 ANTENNA_mux_right_ipin_8\.mux_l1_in_1__A0
*607 ANTENNA_mux_right_ipin_8\.mux_l1_in_1__A1
*608 ANTENNA_mux_right_ipin_8\.mux_l1_in_2__A0
*609 ANTENNA_mux_right_ipin_8\.mux_l1_in_2__A1
*610 ANTENNA_mux_right_ipin_8\.mux_l2_in_1__A0
*611 ANTENNA_mux_right_ipin_8\.mux_l2_in_2__A0
*612 ANTENNA_mux_right_ipin_8\.mux_l2_in_2__A1
*613 ANTENNA_mux_right_ipin_8\.mux_l2_in_3__A1
*614 ANTENNA_mux_right_ipin_9\.mux_l1_in_0__A0
*615 ANTENNA_mux_right_ipin_9\.mux_l1_in_0__A1
*616 ANTENNA_mux_right_ipin_9\.mux_l2_in_0__A0
*617 ANTENNA_mux_right_ipin_9\.mux_l2_in_1__A0
*618 ANTENNA_mux_right_ipin_9\.mux_l2_in_1__A1
*619 ANTENNA_mux_right_ipin_9\.mux_l2_in_2__A0
*620 ANTENNA_mux_right_ipin_9\.mux_l2_in_2__A1
*621 ANTENNA_mux_right_ipin_9\.mux_l2_in_3__A1
*622 ANTENNA_prog_clk_0_FTB00_A
*623 ANTENNA_prog_clk_0_N_FTB01_A
*624 ANTENNA_prog_clk_0_S_FTB01_A
*625 FILLER_0_108
*626 FILLER_0_111
*627 FILLER_0_13
*628 FILLER_0_141
*629 FILLER_0_153
*630 FILLER_0_17
*631 FILLER_0_3
*632 FILLER_0_49
*633 FILLER_0_57
*634 FILLER_0_74
*635 FILLER_0_89
*636 FILLER_0_94
*637 FILLER_10_137
*638 FILLER_10_141
*639 FILLER_10_144
*640 FILLER_10_156
*641 FILLER_10_29
*642 FILLER_10_3
*643 FILLER_10_64
*644 FILLER_10_83
*645 FILLER_11_101
*646 FILLER_11_105
*647 FILLER_11_111
*648 FILLER_11_115
*649 FILLER_11_121
*650 FILLER_11_129
*651 FILLER_11_143
*652 FILLER_11_153
*653 FILLER_11_3
*654 FILLER_11_49
*655 FILLER_11_57
*656 FILLER_12_138
*657 FILLER_12_29
*658 FILLER_12_3
*659 FILLER_12_34
*660 FILLER_12_68
*661 FILLER_12_80
*662 FILLER_12_85
*663 FILLER_12_89
*664 FILLER_12_9
*665 FILLER_12_92
*666 FILLER_13_10
*667 FILLER_13_108
*668 FILLER_13_129
*669 FILLER_13_140
*670 FILLER_13_155
*671 FILLER_13_22
*672 FILLER_13_3
*673 FILLER_13_52
*674 FILLER_13_57
*675 FILLER_14_114
*676 FILLER_14_122
*677 FILLER_14_134
*678 FILLER_14_141
*679 FILLER_14_157
*680 FILLER_14_16
*681 FILLER_14_29
*682 FILLER_14_3
*683 FILLER_14_85
*684 FILLER_14_93
*685 FILLER_15_103
*686 FILLER_15_111
*687 FILLER_15_113
*688 FILLER_15_126
*689 FILLER_15_136
*690 FILLER_15_148
*691 FILLER_15_156
*692 FILLER_15_3
*693 FILLER_15_55
*694 FILLER_15_57
*695 FILLER_15_7
*696 FILLER_15_76
*697 FILLER_15_82
*698 FILLER_16_135
*699 FILLER_16_152
*700 FILLER_16_158
*701 FILLER_16_3
*702 FILLER_16_7
*703 FILLER_17_10
*704 FILLER_17_107
*705 FILLER_17_111
*706 FILLER_17_113
*707 FILLER_17_126
*708 FILLER_17_130
*709 FILLER_17_144
*710 FILLER_17_156
*711 FILLER_17_29
*712 FILLER_17_3
*713 FILLER_17_54
*714 FILLER_17_57
*715 FILLER_17_65
*716 FILLER_17_68
*717 FILLER_17_80
*718 FILLER_17_88
*719 FILLER_18_101
*720 FILLER_18_107
*721 FILLER_18_126
*722 FILLER_18_138
*723 FILLER_18_14
*724 FILLER_18_155
*725 FILLER_18_3
*726 FILLER_18_45
*727 FILLER_18_48
*728 FILLER_18_56
*729 FILLER_18_77
*730 FILLER_18_81
*731 FILLER_19_102
*732 FILLER_19_11
*733 FILLER_19_129
*734 FILLER_19_154
*735 FILLER_19_158
*736 FILLER_19_23
*737 FILLER_19_3
*738 FILLER_19_57
*739 FILLER_19_65
*740 FILLER_1_158
*741 FILLER_1_3
*742 FILLER_20_129
*743 FILLER_20_137
*744 FILLER_20_150
*745 FILLER_20_154
*746 FILLER_20_29
*747 FILLER_20_3
*748 FILLER_20_46
*749 FILLER_20_65
*750 FILLER_20_89
*751 FILLER_21_11
*752 FILLER_21_131
*753 FILLER_21_143
*754 FILLER_21_26
*755 FILLER_21_3
*756 FILLER_21_30
*757 FILLER_21_36
*758 FILLER_21_55
*759 FILLER_21_75
*760 FILLER_22_10
*761 FILLER_22_106
*762 FILLER_22_115
*763 FILLER_22_132
*764 FILLER_22_27
*765 FILLER_22_3
*766 FILLER_22_42
*767 FILLER_22_65
*768 FILLER_22_82
*769 FILLER_22_87
*770 FILLER_22_93
*771 FILLER_22_98
*772 FILLER_23_102
*773 FILLER_23_106
*774 FILLER_23_11
*775 FILLER_23_111
*776 FILLER_23_158
*777 FILLER_23_19
*778 FILLER_23_3
*779 FILLER_23_31
*780 FILLER_23_77
*781 FILLER_24_114
*782 FILLER_24_128
*783 FILLER_24_136
*784 FILLER_24_143
*785 FILLER_24_149
*786 FILLER_24_157
*787 FILLER_24_21
*788 FILLER_24_29
*789 FILLER_24_3
*790 FILLER_24_44
*791 FILLER_24_98
*792 FILLER_25_11
*793 FILLER_25_148
*794 FILLER_25_158
*795 FILLER_25_21
*796 FILLER_25_25
*797 FILLER_25_3
*798 FILLER_25_32
*799 FILLER_25_36
*800 FILLER_25_55
*801 FILLER_25_72
*802 FILLER_26_111
*803 FILLER_26_139
*804 FILLER_26_143
*805 FILLER_26_157
*806 FILLER_26_23
*807 FILLER_26_3
*808 FILLER_26_31
*809 FILLER_27_107
*810 FILLER_27_147
*811 FILLER_27_15
*812 FILLER_27_27