*SPEF "ieee 1481-1999"
*DESIGN "cby_1__1_"
*DATE "11:11:11 Fri 11 11, 1111"
*VENDOR "OpenRCX"
*PROGRAM "Parallel Extraction"
*VERSION "1.0"
*DESIGN_FLOW "NAME_SCOPE LOCAL" "PIN_CAP NONE"
*DIVIDER /
*DELIMITER :
*BUS_DELIMITER []
*T_UNIT 1 NS
*C_UNIT 1 PF
*R_UNIT 1 OHM
*L_UNIT 1 HENRY

*NAME_MAP
*1 Test_en_E_in
*2 Test_en_E_out
*3 Test_en_N_out
*4 Test_en_S_in
*5 Test_en_W_in
*6 Test_en_W_out
*9 ccff_head
*10 ccff_tail
*11 chany_bottom_in[0]
*12 chany_bottom_in[10]
*13 chany_bottom_in[11]
*14 chany_bottom_in[12]
*15 chany_bottom_in[13]
*16 chany_bottom_in[14]
*17 chany_bottom_in[15]
*18 chany_bottom_in[16]
*19 chany_bottom_in[17]
*20 chany_bottom_in[18]
*21 chany_bottom_in[19]
*22 chany_bottom_in[1]
*23 chany_bottom_in[2]
*24 chany_bottom_in[3]
*25 chany_bottom_in[4]
*26 chany_bottom_in[5]
*27 chany_bottom_in[6]
*28 chany_bottom_in[7]
*29 chany_bottom_in[8]
*30 chany_bottom_in[9]
*31 chany_bottom_out[0]
*32 chany_bottom_out[10]
*33 chany_bottom_out[11]
*34 chany_bottom_out[12]
*35 chany_bottom_out[13]
*36 chany_bottom_out[14]
*37 chany_bottom_out[15]
*38 chany_bottom_out[16]
*39 chany_bottom_out[17]
*40 chany_bottom_out[18]
*41 chany_bottom_out[19]
*42 chany_bottom_out[1]
*43 chany_bottom_out[2]
*44 chany_bottom_out[3]
*45 chany_bottom_out[4]
*46 chany_bottom_out[5]
*47 chany_bottom_out[6]
*48 chany_bottom_out[7]
*49 chany_bottom_out[8]
*50 chany_bottom_out[9]
*51 chany_top_in[0]
*52 chany_top_in[10]
*53 chany_top_in[11]
*54 chany_top_in[12]
*55 chany_top_in[13]
*56 chany_top_in[14]
*57 chany_top_in[15]
*58 chany_top_in[16]
*59 chany_top_in[17]
*60 chany_top_in[18]
*61 chany_top_in[19]
*62 chany_top_in[1]
*63 chany_top_in[2]
*64 chany_top_in[3]
*65 chany_top_in[4]
*66 chany_top_in[5]
*67 chany_top_in[6]
*68 chany_top_in[7]
*69 chany_top_in[8]
*70 chany_top_in[9]
*71 chany_top_out[0]
*72 chany_top_out[10]
*73 chany_top_out[11]
*74 chany_top_out[12]
*75 chany_top_out[13]
*76 chany_top_out[14]
*77 chany_top_out[15]
*78 chany_top_out[16]
*79 chany_top_out[17]
*80 chany_top_out[18]
*81 chany_top_out[19]
*82 chany_top_out[1]
*83 chany_top_out[2]
*84 chany_top_out[3]
*85 chany_top_out[4]
*86 chany_top_out[5]
*87 chany_top_out[6]
*88 chany_top_out[7]
*89 chany_top_out[8]
*90 chany_top_out[9]
*91 clk_2_N_out
*92 clk_2_S_in
*93 clk_2_S_out
*94 clk_3_N_out
*95 clk_3_S_in
*96 clk_3_S_out
*97 left_grid_pin_16_
*98 left_grid_pin_17_
*99 left_grid_pin_18_
*100 left_grid_pin_19_
*101 left_grid_pin_20_
*102 left_grid_pin_21_
*103 left_grid_pin_22_
*104 left_grid_pin_23_
*105 left_grid_pin_24_
*106 left_grid_pin_25_
*107 left_grid_pin_26_
*108 left_grid_pin_27_
*109 left_grid_pin_28_
*110 left_grid_pin_29_
*111 left_grid_pin_30_
*112 left_grid_pin_31_
*113 prog_clk_0_N_out
*114 prog_clk_0_S_out
*115 prog_clk_0_W_in
*116 prog_clk_2_N_out
*117 prog_clk_2_S_in
*118 prog_clk_2_S_out
*119 prog_clk_3_N_out
*120 prog_clk_3_S_in
*121 prog_clk_3_S_out
*122 mem_right_ipin_0\.ccff_tail
*123 mem_right_ipin_0\.mem_out\[0\]
*124 mem_right_ipin_0\.mem_out\[1\]
*125 mem_right_ipin_0\.mem_out\[2\]
*126 mem_right_ipin_0\.prog_clk
*127 mem_right_ipin_1\.ccff_tail
*128 mem_right_ipin_1\.mem_out\[0\]
*129 mem_right_ipin_1\.mem_out\[1\]
*130 mem_right_ipin_1\.mem_out\[2\]
*131 mem_right_ipin_10\.ccff_head
*132 mem_right_ipin_10\.ccff_tail
*133 mem_right_ipin_10\.mem_out\[0\]
*134 mem_right_ipin_10\.mem_out\[1\]
*135 mem_right_ipin_10\.mem_out\[2\]
*136 mem_right_ipin_11\.ccff_tail
*137 mem_right_ipin_11\.mem_out\[0\]
*138 mem_right_ipin_11\.mem_out\[1\]
*139 mem_right_ipin_11\.mem_out\[2\]
*140 mem_right_ipin_12\.ccff_tail
*141 mem_right_ipin_12\.mem_out\[0\]
*142 mem_right_ipin_12\.mem_out\[1\]
*143 mem_right_ipin_12\.mem_out\[2\]
*144 mem_right_ipin_13\.ccff_tail
*145 mem_right_ipin_13\.mem_out\[0\]
*146 mem_right_ipin_13\.mem_out\[1\]
*147 mem_right_ipin_13\.mem_out\[2\]
*148 mem_right_ipin_14\.ccff_tail
*149 mem_right_ipin_14\.mem_out\[0\]
*150 mem_right_ipin_14\.mem_out\[1\]
*151 mem_right_ipin_14\.mem_out\[2\]
*152 mem_right_ipin_15\.mem_out\[0\]
*153 mem_right_ipin_15\.mem_out\[1\]
*154 mem_right_ipin_15\.mem_out\[2\]
*155 mem_right_ipin_2\.ccff_tail
*156 mem_right_ipin_2\.mem_out\[0\]
*157 mem_right_ipin_2\.mem_out\[1\]
*158 mem_right_ipin_2\.mem_out\[2\]
*159 mem_right_ipin_3\.ccff_tail
*160 mem_right_ipin_3\.mem_out\[0\]
*161 mem_right_ipin_3\.mem_out\[1\]
*162 mem_right_ipin_3\.mem_out\[2\]
*163 mem_right_ipin_4\.ccff_tail
*164 mem_right_ipin_4\.mem_out\[0\]
*165 mem_right_ipin_4\.mem_out\[1\]
*166 mem_right_ipin_4\.mem_out\[2\]
*167 mem_right_ipin_5\.ccff_tail
*168 mem_right_ipin_5\.mem_out\[0\]
*169 mem_right_ipin_5\.mem_out\[1\]
*170 mem_right_ipin_5\.mem_out\[2\]
*171 mem_right_ipin_6\.ccff_tail
*172 mem_right_ipin_6\.mem_out\[0\]
*173 mem_right_ipin_6\.mem_out\[1\]
*174 mem_right_ipin_6\.mem_out\[2\]
*175 mem_right_ipin_7\.ccff_tail
*176 mem_right_ipin_7\.mem_out\[0\]
*177 mem_right_ipin_7\.mem_out\[1\]
*178 mem_right_ipin_7\.mem_out\[2\]
*179 mem_right_ipin_8\.ccff_tail
*180 mem_right_ipin_8\.mem_out\[0\]
*181 mem_right_ipin_8\.mem_out\[1\]
*182 mem_right_ipin_8\.mem_out\[2\]
*183 mem_right_ipin_9\.mem_out\[0\]
*184 mem_right_ipin_9\.mem_out\[1\]
*185 mem_right_ipin_9\.mem_out\[2\]
*186 mux_right_ipin_0\.sky130_fd_sc_hd__mux2_1_0_X
*187 mux_right_ipin_0\.sky130_fd_sc_hd__mux2_1_1_X
*188 mux_right_ipin_0\.sky130_fd_sc_hd__mux2_1_2_X
*189 mux_right_ipin_0\.sky130_fd_sc_hd__mux2_1_3_X
*190 mux_right_ipin_0\.sky130_fd_sc_hd__mux2_1_4_X
*191 mux_right_ipin_0\.sky130_fd_sc_hd__mux2_1_5_X
*192 mux_right_ipin_0\.sky130_fd_sc_hd__mux2_1_6_X
*193 mux_right_ipin_0\.sky130_fd_sc_hd__mux2_1_7_X
*194 mux_right_ipin_0\.sky130_fd_sc_hd__mux2_1_8_X
*195 mux_right_ipin_0\.sky130_fd_sc_hd__mux2_1_9_X
*196 mux_right_ipin_1\.sky130_fd_sc_hd__mux2_1_0_X
*197 mux_right_ipin_1\.sky130_fd_sc_hd__mux2_1_1_X
*198 mux_right_ipin_1\.sky130_fd_sc_hd__mux2_1_2_X
*199 mux_right_ipin_1\.sky130_fd_sc_hd__mux2_1_3_X
*200 mux_right_ipin_1\.sky130_fd_sc_hd__mux2_1_4_X
*201 mux_right_ipin_1\.sky130_fd_sc_hd__mux2_1_5_X
*202 mux_right_ipin_1\.sky130_fd_sc_hd__mux2_1_6_X
*203 mux_right_ipin_1\.sky130_fd_sc_hd__mux2_1_7_X
*204 mux_right_ipin_10\.sky130_fd_sc_hd__mux2_1_0_X
*205 mux_right_ipin_10\.sky130_fd_sc_hd__mux2_1_1_X
*206 mux_right_ipin_10\.sky130_fd_sc_hd__mux2_1_2_X
*207 mux_right_ipin_10\.sky130_fd_sc_hd__mux2_1_3_X
*208 mux_right_ipin_10\.sky130_fd_sc_hd__mux2_1_4_X
*209 mux_right_ipin_10\.sky130_fd_sc_hd__mux2_1_5_X
*210 mux_right_ipin_10\.sky130_fd_sc_hd__mux2_1_6_X
*211 mux_right_ipin_10\.sky130_fd_sc_hd__mux2_1_7_X
*212 mux_right_ipin_11\.sky130_fd_sc_hd__mux2_1_0_X
*213 mux_right_ipin_11\.sky130_fd_sc_hd__mux2_1_1_X
*214 mux_right_ipin_11\.sky130_fd_sc_hd__mux2_1_2_X
*215 mux_right_ipin_11\.sky130_fd_sc_hd__mux2_1_3_X
*216 mux_right_ipin_11\.sky130_fd_sc_hd__mux2_1_4_X
*217 mux_right_ipin_11\.sky130_fd_sc_hd__mux2_1_5_X
*218 mux_right_ipin_11\.sky130_fd_sc_hd__mux2_1_6_X
*219 mux_right_ipin_11\.sky130_fd_sc_hd__mux2_1_7_X
*220 mux_right_ipin_11\.sky130_fd_sc_hd__mux2_1_8_X
*221 mux_right_ipin_11\.sky130_fd_sc_hd__mux2_1_9_X
*222 mux_right_ipin_12\.sky130_fd_sc_hd__mux2_1_0_X
*223 mux_right_ipin_12\.sky130_fd_sc_hd__mux2_1_1_X
*224 mux_right_ipin_12\.sky130_fd_sc_hd__mux2_1_2_X
*225 mux_right_ipin_12\.sky130_fd_sc_hd__mux2_1_3_X
*226 mux_right_ipin_12\.sky130_fd_sc_hd__mux2_1_4_X
*227 mux_right_ipin_12\.sky130_fd_sc_hd__mux2_1_5_X
*228 mux_right_ipin_12\.sky130_fd_sc_hd__mux2_1_6_X
*229 mux_right_ipin_12\.sky130_fd_sc_hd__mux2_1_7_X
*230 mux_right_ipin_12\.sky130_fd_sc_hd__mux2_1_8_X
*231 mux_right_ipin_12\.sky130_fd_sc_hd__mux2_1_9_X
*232 mux_right_ipin_13\.sky130_fd_sc_hd__mux2_1_0_X
*233 mux_right_ipin_13\.sky130_fd_sc_hd__mux2_1_1_X
*234 mux_right_ipin_13\.sky130_fd_sc_hd__mux2_1_2_X
*235 mux_right_ipin_13\.sky130_fd_sc_hd__mux2_1_3_X
*236 mux_right_ipin_13\.sky130_fd_sc_hd__mux2_1_4_X
*237 mux_right_ipin_13\.sky130_fd_sc_hd__mux2_1_5_X
*238 mux_right_ipin_13\.sky130_fd_sc_hd__mux2_1_6_X
*239 mux_right_ipin_13\.sky130_fd_sc_hd__mux2_1_7_X
*240 mux_right_ipin_14\.sky130_fd_sc_hd__mux2_1_0_X
*241 mux_right_ipin_14\.sky130_fd_sc_hd__mux2_1_1_X
*242 mux_right_ipin_14\.sky130_fd_sc_hd__mux2_1_2_X
*243 mux_right_ipin_14\.sky130_fd_sc_hd__mux2_1_3_X
*244 mux_right_ipin_14\.sky130_fd_sc_hd__mux2_1_4_X
*245 mux_right_ipin_14\.sky130_fd_sc_hd__mux2_1_5_X
*246 mux_right_ipin_14\.sky130_fd_sc_hd__mux2_1_6_X
*247 mux_right_ipin_14\.sky130_fd_sc_hd__mux2_1_7_X
*248 mux_right_ipin_15\.sky130_fd_sc_hd__mux2_1_0_X
*249 mux_right_ipin_15\.sky130_fd_sc_hd__mux2_1_1_X
*250 mux_right_ipin_15\.sky130_fd_sc_hd__mux2_1_2_X
*251 mux_right_ipin_15\.sky130_fd_sc_hd__mux2_1_3_X
*252 mux_right_ipin_15\.sky130_fd_sc_hd__mux2_1_4_X
*253 mux_right_ipin_15\.sky130_fd_sc_hd__mux2_1_5_X
*254 mux_right_ipin_15\.sky130_fd_sc_hd__mux2_1_6_X
*255 mux_right_ipin_15\.sky130_fd_sc_hd__mux2_1_7_X
*256 mux_right_ipin_15\.sky130_fd_sc_hd__mux2_1_8_X
*257 mux_right_ipin_15\.sky130_fd_sc_hd__mux2_1_9_X
*258 mux_right_ipin_2\.sky130_fd_sc_hd__mux2_1_0_X
*259 mux_right_ipin_2\.sky130_fd_sc_hd__mux2_1_1_X
*260 mux_right_ipin_2\.sky130_fd_sc_hd__mux2_1_2_X
*261 mux_right_ipin_2\.sky130_fd_sc_hd__mux2_1_3_X
*262 mux_right_ipin_2\.sky130_fd_sc_hd__mux2_1_4_X
*263 mux_right_ipin_2\.sky130_fd_sc_hd__mux2_1_5_X
*264 mux_right_ipin_2\.sky130_fd_sc_hd__mux2_1_6_X
*265 mux_right_ipin_2\.sky130_fd_sc_hd__mux2_1_7_X
*266 mux_right_ipin_3\.sky130_fd_sc_hd__mux2_1_0_X
*267 mux_right_ipin_3\.sky130_fd_sc_hd__mux2_1_1_X
*268 mux_right_ipin_3\.sky130_fd_sc_hd__mux2_1_2_X
*269 mux_right_ipin_3\.sky130_fd_sc_hd__mux2_1_3_X
*270 mux_right_ipin_3\.sky130_fd_sc_hd__mux2_1_4_X
*271 mux_right_ipin_3\.sky130_fd_sc_hd__mux2_1_5_X
*272 mux_right_ipin_3\.sky130_fd_sc_hd__mux2_1_6_X
*273 mux_right_ipin_3\.sky130_fd_sc_hd__mux2_1_7_X
*274 mux_right_ipin_3\.sky130_fd_sc_hd__mux2_1_8_X
*275 mux_right_ipin_3\.sky130_fd_sc_hd__mux2_1_9_X
*276 mux_right_ipin_4\.sky130_fd_sc_hd__mux2_1_0_X
*277 mux_right_ipin_4\.sky130_fd_sc_hd__mux2_1_1_X
*278 mux_right_ipin_4\.sky130_fd_sc_hd__mux2_1_2_X
*279 mux_right_ipin_4\.sky130_fd_sc_hd__mux2_1_3_X
*280 mux_right_ipin_4\.sky130_fd_sc_hd__mux2_1_4_X
*281 mux_right_ipin_4\.sky130_fd_sc_hd__mux2_1_5_X
*282 mux_right_ipin_4\.sky130_fd_sc_hd__mux2_1_6_X
*283 mux_right_ipin_4\.sky130_fd_sc_hd__mux2_1_7_X
*284 mux_right_ipin_4\.sky130_fd_sc_hd__mux2_1_8_X
*285 mux_right_ipin_4\.sky130_fd_sc_hd__mux2_1_9_X
*286 mux_right_ipin_5\.sky130_fd_sc_hd__mux2_1_0_X
*287 mux_right_ipin_5\.sky130_fd_sc_hd__mux2_1_1_X
*288 mux_right_ipin_5\.sky130_fd_sc_hd__mux2_1_2_X
*289 mux_right_ipin_5\.sky130_fd_sc_hd__mux2_1_3_X
*290 mux_right_ipin_5\.sky130_fd_sc_hd__mux2_1_4_X
*291 mux_right_ipin_5\.sky130_fd_sc_hd__mux2_1_5_X
*292 mux_right_ipin_5\.sky130_fd_sc_hd__mux2_1_6_X
*293 mux_right_ipin_5\.sky130_fd_sc_hd__mux2_1_7_X
*294 mux_right_ipin_6\.sky130_fd_sc_hd__mux2_1_0_X
*295 mux_right_ipin_6\.sky130_fd_sc_hd__mux2_1_1_X
*296 mux_right_ipin_6\.sky130_fd_sc_hd__mux2_1_2_X
*297 mux_right_ipin_6\.sky130_fd_sc_hd__mux2_1_3_X
*298 mux_right_ipin_6\.sky130_fd_sc_hd__mux2_1_4_X
*299 mux_right_ipin_6\.sky130_fd_sc_hd__mux2_1_5_X
*300 mux_right_ipin_6\.sky130_fd_sc_hd__mux2_1_6_X
*301 mux_right_ipin_6\.sky130_fd_sc_hd__mux2_1_7_X
*302 mux_right_ipin_7\.sky130_fd_sc_hd__mux2_1_0_X
*303 mux_right_ipin_7\.sky130_fd_sc_hd__mux2_1_1_X
*304 mux_right_ipin_7\.sky130_fd_sc_hd__mux2_1_2_X
*305 mux_right_ipin_7\.sky130_fd_sc_hd__mux2_1_3_X
*306 mux_right_ipin_7\.sky130_fd_sc_hd__mux2_1_4_X
*307 mux_right_ipin_7\.sky130_fd_sc_hd__mux2_1_5_X
*308 mux_right_ipin_7\.sky130_fd_sc_hd__mux2_1_6_X
*309 mux_right_ipin_7\.sky130_fd_sc_hd__mux2_1_7_X
*310 mux_right_ipin_7\.sky130_fd_sc_hd__mux2_1_8_X
*311 mux_right_ipin_7\.sky130_fd_sc_hd__mux2_1_9_X
*312 mux_right_ipin_8\.sky130_fd_sc_hd__mux2_1_0_X
*313 mux_right_ipin_8\.sky130_fd_sc_hd__mux2_1_1_X
*314 mux_right_ipin_8\.sky130_fd_sc_hd__mux2_1_2_X
*315 mux_right_ipin_8\.sky130_fd_sc_hd__mux2_1_3_X
*316 mux_right_ipin_8\.sky130_fd_sc_hd__mux2_1_4_X
*317 mux_right_ipin_8\.sky130_fd_sc_hd__mux2_1_5_X
*318 mux_right_ipin_8\.sky130_fd_sc_hd__mux2_1_6_X
*319 mux_right_ipin_8\.sky130_fd_sc_hd__mux2_1_7_X
*320 mux_right_ipin_8\.sky130_fd_sc_hd__mux2_1_8_X
*321 mux_right_ipin_8\.sky130_fd_sc_hd__mux2_1_9_X
*322 mux_right_ipin_9\.sky130_fd_sc_hd__mux2_1_0_X
*323 mux_right_ipin_9\.sky130_fd_sc_hd__mux2_1_1_X
*324 mux_right_ipin_9\.sky130_fd_sc_hd__mux2_1_2_X
*325 mux_right_ipin_9\.sky130_fd_sc_hd__mux2_1_3_X
*326 mux_right_ipin_9\.sky130_fd_sc_hd__mux2_1_4_X
*327 mux_right_ipin_9\.sky130_fd_sc_hd__mux2_1_5_X
*328 mux_right_ipin_9\.sky130_fd_sc_hd__mux2_1_6_X
*329 mux_right_ipin_9\.sky130_fd_sc_hd__mux2_1_7_X
*330 net1
*331 net10
*332 net100
*333 net101
*334 net102
*335 net103
*336 net104
*337 net105
*338 net106
*339 net107
*340 net108
*341 net109
*342 net11
*343 net110
*344 net111
*345 net112
*346 net113
*347 net114
*348 net115
*349 net116
*350 net117
*351 net118
*352 net119
*353 net12
*354 net120
*355 net121
*356 net122
*357 net123
*358 net124
*359 net125
*360 net126
*361 net127
*362 net128
*363 net129
*364 net13
*365 net130
*366 net131
*367 net132
*368 net133
*369 net134
*370 net135
*371 net136
*372 net137
*373 net138
*374 net139
*375 net14
*376 net140
*377 net141
*378 net142
*379 net143
*380 net144
*381 net145
*382 net146
*383 net147
*384 net148
*385 net15
*386 net16
*387 net17
*388 net18
*389 net19
*390 net2
*391 net20
*392 net21
*393 net22
*394 net23
*395 net24
*396 net25
*397 net26
*398 net27
*399 net28
*400 net29
*401 net3
*402 net30
*403 net31
*404 net32
*405 net33
*406 net34
*407 net35
*408 net36
*409 net37
*410 net38
*411 net39
*412 net4
*413 net40
*414 net41
*415 net42
*416 net43
*417 net44
*418 net45
*419 net46
*420 net47
*421 net48
*422 net49
*423 net5
*424 net50
*425 net51
*426 net52
*427 net53
*428 net54
*429 net55
*430 net56
*431 net57
*432 net58
*433 net59
*434 net6
*435 net60
*436 net61
*437 net62
*438 net63
*439 net64
*440 net65
*441 net66
*442 net67
*443 net68
*444 net69
*445 net7
*446 net70
*447 net71
*448 net72
*449 net73
*450 net74
*451 net75
*452 net76
*453 net77
*454 net78
*455 net79
*456 net8
*457 net80
*458 net81
*459 net82
*460 net83
*461 net84
*462 net85
*463 net86
*464 net87
*465 net88
*466 net89
*467 net9
*468 net90
*469 net91
*470 net92
*471 net93
*472 net94
*473 net95
*474 net96
*475 net97
*476 net98
*477 net99
*478 ANTENNA_Test_en_E_FTB01_A
*479 ANTENNA_Test_en_N_FTB01_A
*480 ANTENNA_Test_en_W_FTB01_A
*481 ANTENNA__36__A
*482 ANTENNA__37__A
*483 ANTENNA__38__A
*484 ANTENNA__39__A
*485 ANTENNA__40__A
*486 ANTENNA__41__A
*487 ANTENNA__42__A
*488 ANTENNA__45__A
*489 ANTENNA__46__A
*490 ANTENNA__49__A
*491 ANTENNA__55__A
*492 ANTENNA__56__A
*493 ANTENNA__57__A
*494 ANTENNA__58__A
*495 ANTENNA__59__A
*496 ANTENNA__60__A
*497 ANTENNA__61__A
*498 ANTENNA__62__A
*499 ANTENNA__63__A
*500 ANTENNA__65__A
*501 ANTENNA__66__A
*502 ANTENNA_input10_A
*503 ANTENNA_input11_A
*504 ANTENNA_input12_A
*505 ANTENNA_input13_A
*506 ANTENNA_input14_A
*507 ANTENNA_input15_A
*508 ANTENNA_input16_A
*509 ANTENNA_input17_A
*510 ANTENNA_input18_A
*511 ANTENNA_input19_A
*512 ANTENNA_input1_A
*513 ANTENNA_input20_A
*514 ANTENNA_input21_A
*515 ANTENNA_input22_A
*516 ANTENNA_input23_A
*517 ANTENNA_input24_A
*518 ANTENNA_input25_A
*519 ANTENNA_input26_A
*520 ANTENNA_input27_A
*521 ANTENNA_input28_A
*522 ANTENNA_input29_A
*523 ANTENNA_input2_A
*524 ANTENNA_input30_A
*525 ANTENNA_input31_A
*526 ANTENNA_input32_A
*527 ANTENNA_input33_A
*528 ANTENNA_input34_A
*529 ANTENNA_input35_A
*530 ANTENNA_input36_A
*531 ANTENNA_input37_A
*532 ANTENNA_input38_A
*533 ANTENNA_input39_A
*534 ANTENNA_input3_A
*535 ANTENNA_input40_A
*536 ANTENNA_input41_A
*537 ANTENNA_input42_A
*538 ANTENNA_input43_A
*539 ANTENNA_input44_A
*540 ANTENNA_input45_A
*541 ANTENNA_input46_A
*542 ANTENNA_input4_A
*543 ANTENNA_input5_A
*544 ANTENNA_input6_A
*545 ANTENNA_input7_A
*546 ANTENNA_input8_A
*547 ANTENNA_input9_A
*548 ANTENNA_mem_right_ipin_0\.sky130_fd_sc_hd__dfxtp_1_0__CLK
*549 ANTENNA_mem_right_ipin_0\.sky130_fd_sc_hd__dfxtp_1_1__CLK
*550 ANTENNA_mem_right_ipin_0\.sky130_fd_sc_hd__dfxtp_1_2__CLK
*551 ANTENNA_mem_right_ipin_0\.sky130_fd_sc_hd__dfxtp_1_3__CLK
*552 ANTENNA_mem_right_ipin_1\.sky130_fd_sc_hd__dfxtp_1_0__CLK
*553 ANTENNA_mem_right_ipin_1\.sky130_fd_sc_hd__dfxtp_1_1__CLK
*554 ANTENNA_mem_right_ipin_1\.sky130_fd_sc_hd__dfxtp_1_2__CLK
*555 ANTENNA_mem_right_ipin_1\.sky130_fd_sc_hd__dfxtp_1_3__CLK
*556 ANTENNA_mem_right_ipin_10\.sky130_fd_sc_hd__dfxtp_1_0__CLK
*557 ANTENNA_mem_right_ipin_10\.sky130_fd_sc_hd__dfxtp_1_1__CLK
*558 ANTENNA_mem_right_ipin_10\.sky130_fd_sc_hd__dfxtp_1_2__CLK
*559 ANTENNA_mem_right_ipin_10\.sky130_fd_sc_hd__dfxtp_1_3__CLK
*560 ANTENNA_mem_right_ipin_11\.sky130_fd_sc_hd__dfxtp_1_0__CLK
*561 ANTENNA_mem_right_ipin_11\.sky130_fd_sc_hd__dfxtp_1_1__CLK
*562 ANTENNA_mem_right_ipin_11\.sky130_fd_sc_hd__dfxtp_1_2__CLK
*563 ANTENNA_mem_right_ipin_11\.sky130_fd_sc_hd__dfxtp_1_3__CLK
*564 ANTENNA_mem_right_ipin_12\.sky130_fd_sc_hd__dfxtp_1_0__CLK
*565 ANTENNA_mem_right_ipin_12\.sky130_fd_sc_hd__dfxtp_1_1__CLK
*566 ANTENNA_mem_right_ipin_12\.sky130_fd_sc_hd__dfxtp_1_2__CLK
*567 ANTENNA_mem_right_ipin_12\.sky130_fd_sc_hd__dfxtp_1_3__CLK
*568 ANTENNA_mem_right_ipin_13\.sky130_fd_sc_hd__dfxtp_1_0__CLK
*569 ANTENNA_mem_right_ipin_13\.sky130_fd_sc_hd__dfxtp_1_1__CLK
*570 ANTENNA_mem_right_ipin_13\.sky130_fd_sc_hd__dfxtp_1_2__CLK
*571 ANTENNA_mem_right_ipin_13\.sky130_fd_sc_hd__dfxtp_1_3__CLK
*572 ANTENNA_mem_right_ipin_14\.sky130_fd_sc_hd__dfxtp_1_0__CLK
*573 ANTENNA_mem_right_ipin_14\.sky130_fd_sc_hd__dfxtp_1_1__CLK
*574 ANTENNA_mem_right_ipin_14\.sky130_fd_sc_hd__dfxtp_1_2__CLK
*575 ANTENNA_mem_right_ipin_14\.sky130_fd_sc_hd__dfxtp_1_3__CLK
*576 ANTENNA_mem_right_ipin_15\.sky130_fd_sc_hd__dfxtp_1_0__CLK
*577 ANTENNA_mem_right_ipin_15\.sky130_fd_sc_hd__dfxtp_1_1__CLK
*578 ANTENNA_mem_right_ipin_15\.sky130_fd_sc_hd__dfxtp_1_2__CLK
*579 ANTENNA_mem_right_ipin_15\.sky130_fd_sc_hd__dfxtp_1_3__CLK
*580 ANTENNA_mem_right_ipin_2\.sky130_fd_sc_hd__dfxtp_1_0__CLK
*581 ANTENNA_mem_right_ipin_2\.sky130_fd_sc_hd__dfxtp_1_1__CLK
*582 ANTENNA_mem_right_ipin_2\.sky130_fd_sc_hd__dfxtp_1_2__CLK
*583 ANTENNA_mem_right_ipin_2\.sky130_fd_sc_hd__dfxtp_1_3__CLK
*584 ANTENNA_mem_right_ipin_3\.sky130_fd_sc_hd__dfxtp_1_0__CLK
*585 ANTENNA_mem_right_ipin_3\.sky130_fd_sc_hd__dfxtp_1_1__CLK
*586 ANTENNA_mem_right_ipin_3\.sky130_fd_sc_hd__dfxtp_1_1__D
*587 ANTENNA_mem_right_ipin_3\.sky130_fd_sc_hd__dfxtp_1_2__CLK
*588 ANTENNA_mem_right_ipin_3\.sky130_fd_sc_hd__dfxtp_1_2__D
*589 ANTENNA_mem_right_ipin_3\.sky130_fd_sc_hd__dfxtp_1_3__CLK
*590 ANTENNA_mem_right_ipin_3\.sky130_fd_sc_hd__dfxtp_1_3__D
*591 ANTENNA_mem_right_ipin_4\.sky130_fd_sc_hd__dfxtp_1_0__CLK
*592 ANTENNA_mem_right_ipin_4\.sky130_fd_sc_hd__dfxtp_1_1__CLK
*593 ANTENNA_mem_right_ipin_4\.sky130_fd_sc_hd__dfxtp_1_2__CLK
*594 ANTENNA_mem_right_ipin_4\.sky130_fd_sc_hd__dfxtp_1_2__D
*595 ANTENNA_mem_right_ipin_4\.sky130_fd_sc_hd__dfxtp_1_3__CLK
*596 ANTENNA_mem_right_ipin_5\.sky130_fd_sc_hd__dfxtp_1_0__CLK
*597 ANTENNA_mem_right_ipin_5\.sky130_fd_sc_hd__dfxtp_1_1__CLK
*598 ANTENNA_mem_right_ipin_5\.sky130_fd_sc_hd__dfxtp_1_2__CLK
*599 ANTENNA_mem_right_ipin_5\.sky130_fd_sc_hd__dfxtp_1_3__CLK
*600 ANTENNA_mem_right_ipin_6\.sky130_fd_sc_hd__dfxtp_1_0__CLK
*601 ANTENNA_mem_right_ipin_6\.sky130_fd_sc_hd__dfxtp_1_1__CLK
*602 ANTENNA_mem_right_ipin_6\.sky130_fd_sc_hd__dfxtp_1_2__CLK
*603 ANTENNA_mem_right_ipin_6\.sky130_fd_sc_hd__dfxtp_1_3__CLK
*604 ANTENNA_mem_right_ipin_7\.sky130_fd_sc_hd__dfxtp_1_0__CLK
*605 ANTENNA_mem_right_ipin_7\.sky130_fd_sc_hd__dfxtp_1_1__CLK
*606 ANTENNA_mem_right_ipin_7\.sky130_fd_sc_hd__dfxtp_1_1__D
*607 ANTENNA_mem_right_ipin_7\.sky130_fd_sc_hd__dfxtp_1_2__CLK
*608 ANTENNA_mem_right_ipin_7\.sky130_fd_sc_hd__dfxtp_1_3__CLK
*609 ANTENNA_mem_right_ipin_8\.sky130_fd_sc_hd__dfxtp_1_0__CLK
*610 ANTENNA_mem_right_ipin_8\.sky130_fd_sc_hd__dfxtp_1_1__CLK
*611 ANTENNA_mem_right_ipin_8\.sky130_fd_sc_hd__dfxtp_1_2__CLK
*612 ANTENNA_mem_right_ipin_8\.sky130_fd_sc_hd__dfxtp_1_3__CLK
*613 ANTENNA_mem_right_ipin_9\.sky130_fd_sc_hd__dfxtp_1_0__CLK
*614 ANTENNA_mem_right_ipin_9\.sky130_fd_sc_hd__dfxtp_1_1__CLK
*615 ANTENNA_mem_right_ipin_9\.sky130_fd_sc_hd__dfxtp_1_2__CLK
*616 ANTENNA_mem_right_ipin_9\.sky130_fd_sc_hd__dfxtp_1_3__CLK
*617 ANTENNA_mux_right_ipin_0\.mux_l1_in_2__A0
*618 ANTENNA_mux_right_ipin_0\.mux_l1_in_2__A1
*619 ANTENNA_mux_right_ipin_0\.mux_l2_in_1__A0
*620 ANTENNA_mux_right_ipin_0\.mux_l2_in_2__A1
*621 ANTENNA_mux_right_ipin_1\.mux_l2_in_0__A0
*622 ANTENNA_mux_right_ipin_1\.mux_l2_in_1__A0
*623 ANTENNA_mux_right_ipin_1\.mux_l2_in_2__A0
*624 ANTENNA_mux_right_ipin_1\.mux_l2_in_2__A1
*625 ANTENNA_mux_right_ipin_1\.mux_l2_in_3__A1
*626 ANTENNA_mux_right_ipin_10\.mux_l2_in_1__A0
*627 ANTENNA_mux_right_ipin_10\.mux_l2_in_2__A0
*628 ANTENNA_mux_right_ipin_10\.mux_l2_in_2__A1
*629 ANTENNA_mux_right_ipin_10\.mux_l2_in_3__A1
*630 ANTENNA_mux_right_ipin_11\.mux_l1_in_2__A0
*631 ANTENNA_mux_right_ipin_11\.mux_l1_in_2__A1
*632 ANTENNA_mux_right_ipin_11\.mux_l2_in_1__A0
*633 ANTENNA_mux_right_ipin_12\.mux_l1_in_0__A1
*634 ANTENNA_mux_right_ipin_12\.mux_l1_in_2__A0
*635 ANTENNA_mux_right_ipin_12\.mux_l1_in_2__A1
*636 ANTENNA_mux_right_ipin_13\.mux_l2_in_1__A0
*637 ANTENNA_mux_right_ipin_13\.mux_l2_in_2__A1
*638 ANTENNA_mux_right_ipin_13\.mux_l2_in_3__A1
*639 ANTENNA_mux_right_ipin_14\.mux_l1_in_0__A1
*640 ANTENNA_mux_right_ipin_14\.mux_l2_in_1__A0
*641 ANTENNA_mux_right_ipin_14\.mux_l2_in_2__A1
*642 ANTENNA_mux_right_ipin_15\.mux_l1_in_2__A0
*643 ANTENNA_mux_right_ipin_15\.mux_l1_in_2__A1
*644 ANTENNA_mux_right_ipin_15\.mux_l4_in_0__S
*645 ANTENNA_mux_right_ipin_2\.mux_l2_in_1__A0
*646 ANTENNA_mux_right_ipin_2\.mux_l2_in_2__A0
*647 ANTENNA_mux_right_ipin_2\.mux_l2_in_2__A1
*648 ANTENNA_mux_right_ipin_2\.mux_l2_in_3__A1
*649 ANTENNA_mux_right_ipin_3\.mux_l1_in_0__S
*650 ANTENNA_mux_right_ipin_3\.mux_l1_in_1__S
*651 ANTENNA_mux_right_ipin_3\.mux_l1_in_2__A0
*652 ANTENNA_mux_right_ipin_3\.mux_l1_in_2__A1
*653 ANTENNA_mux_right_ipin_3\.mux_l1_in_2__S
*654 ANTENNA_mux_right_ipin_3\.mux_l2_in_0__S
*655 ANTENNA_mux_right_ipin_3\.mux_l2_in_1__A0
*656 ANTENNA_mux_right_ipin_3\.mux_l2_in_1__S
*657 ANTENNA_mux_right_ipin_3\.mux_l2_in_2__A1
*658 ANTENNA_mux_right_ipin_3\.mux_l2_in_2__S
*659 ANTENNA_mux_right_ipin_3\.mux_l2_in_3__S
*660 ANTENNA_mux_right_ipin_3\.mux_l3_in_0__S
*661 ANTENNA_mux_right_ipin_3\.mux_l3_in_1__S
*662 ANTENNA_mux_right_ipin_4\.mux_l1_in_2__A0
*663 ANTENNA_mux_right_ipin_4\.mux_l1_in_2__A1
*664 ANTENNA_mux_right_ipin_4\.mux_l2_in_0__S
*665 ANTENNA_mux_right_ipin_4\.mux_l2_in_1__A0
*666 ANTENNA_mux_right_ipin_4\.mux_l2_in_1__S
*667 ANTENNA_mux_right_ipin_4\.mux_l2_in_2__A0
*668 ANTENNA_mux_right_ipin_4\.mux_l2_in_2__A1
*669 ANTENNA_mux_right_ipin_4\.mux_l2_in_2__S
*670 ANTENNA_mux_right_ipin_4\.mux_l2_in_3__A1
*671 ANTENNA_mux_right_ipin_4\.mux_l2_in_3__S
*672 ANTENNA_mux_right_ipin_5\.mux_l2_in_1__A0
*673 ANTENNA_mux_right_ipin_5\.mux_l2_in_2__A1
*674 ANTENNA_mux_right_ipin_5\.mux_l2_in_3__A1
*675 ANTENNA_mux_right_ipin_6\.mux_l1_in_0__A1
*676 ANTENNA_mux_right_ipin_6\.mux_l2_in_1__A0
*677 ANTENNA_mux_right_ipin_6\.mux_l2_in_2__A1
*678 ANTENNA_mux_right_ipin_7\.mux_l1_in_0__S
*679 ANTENNA_mux_right_ipin_7\.mux_l1_in_1__S
*680 ANTENNA_mux_right_ipin_7\.mux_l1_in_2__A0
*681 ANTENNA_mux_right_ipin_7\.mux_l1_in_2__A1
*682 ANTENNA_mux_right_ipin_7\.mux_l1_in_2__S
*683 ANTENNA_mux_right_ipin_7\.mux_l2_in_1__A0
*684 ANTENNA_mux_right_ipin_7\.mux_l2_in_3__A1
*685 ANTENNA_mux_right_ipin_8\.mux_l1_in_0__A1
*686 ANTENNA_mux_right_ipin_8\.mux_l1_in_2__A0
*687 ANTENNA_mux_right_ipin_8\.mux_l1_in_2__A1
*688 ANTENNA_mux_right_ipin_9\.mux_l2_in_0__A0
*689 ANTENNA_mux_right_ipin_9\.mux_l2_in_1__A0
*690 ANTENNA_mux_right_ipin_9\.mux_l2_in_2__A0
*691 ANTENNA_mux_right_ipin_9\.mux_l2_in_2__A1
*692 ANTENNA_mux_right_ipin_9\.mux_l2_in_3__A1
*693 ANTENNA_output50_A
*694 ANTENNA_prog_clk_0_FTB00_A
*695 ANTENNA_prog_clk_0_N_FTB01_A
*696 ANTENNA_prog_clk_0_S_FTB01_A
*697 ANTENNA_repeater128_A
*698 FILLER_0_3
*699 FILLER_10_106
*700 FILLER_10_133
*701 FILLER_10_145
*702 FILLER_10_29
*703 FILLER_10_36
*704 FILLER_10_72
*705 FILLER_10_82
*706 FILLER_10_85
*707 FILLER_11_104
*708 FILLER_11_13
*709 FILLER_11_151
*710 FILLER_11_3
*711 FILLER_11_48
*712 FILLER_11_74
*713 FILLER_12_10
*714 FILLER_12_106
*715 FILLER_12_114
*716 FILLER_12_139
*717 FILLER_12_143
*718 FILLER_12_146
*719 FILLER_12_49
*720 FILLER_12_61
*721 FILLER_12_65
*722 FILLER_12_85
*723 FILLER_13_10
*724 FILLER_13_105
*725 FILLER_13_111
*726 FILLER_13_113
*727 FILLER_13_145
*728 FILLER_13_158
*729 FILLER_13_53
*730 FILLER_13_73
*731 FILLER_13_81
*732 FILLER_13_86
*733 FILLER_14_139
*734 FILLER_14_19
*735 FILLER_14_27
*736 FILLER_14_29
*737 FILLER_14_37
*738 FILLER_14_45
*739 FILLER_14_64
*740 FILLER_14_7
*741 FILLER_14_85
*742 FILLER_15_108
*743 FILLER_15_113
*744 FILLER_15_125
*745 FILLER_15_138
*746 FILLER_15_158
*747 FILLER_15_23
*748 FILLER_15_27
*749 FILLER_15_46
*750 FILLER_15_54
*751 FILLER_15_57
*752 FILLER_15_82
*753 FILLER_16_105
*754 FILLER_16_109
*755 FILLER_16_121
*756 FILLER_16_141
*757 FILLER_16_146
*758 FILLER_16_158
*759 FILLER_16_29
*760 FILLER_16_3
*761 FILLER_16_38
*762 FILLER_16_46
*763 FILLER_16_67
*764 FILLER_16_7
*765 FILLER_17_108
*766 FILLER_17_125
*767 FILLER_17_15
*768 FILLER_17_50
*769 FILLER_17_7
*770 FILLER_17_76
*771 FILLER_17_88
*772 FILLER_18_109
*773 FILLER_18_121
*774 FILLER_18_31
*775 FILLER_18_57
*776 FILLER_18_65
*777 FILLER_18_85
*778 FILLER_18_97
*779 FILLER_19_10
*780 FILLER_19_107
*781 FILLER_19_111
*782 FILLER_19_113
*783 FILLER_19_117
*784 FILLER_19_121
*785 FILLER_19_153
*786 FILLER_19_16
*787 FILLER_19_52
*788 FILLER_19_57
*789 FILLER_19_83
*790 FILLER_19_86
*791 FILLER_1_158
*792 FILLER_1_70
*793 FILLER_20_102
*794 FILLER_20_139
*795 FILLER_20_21
*796 FILLER_20_27
*797 FILLER_20_29
*798 FILLER_20_67
*799 FILLER_20_85
*800 FILLER_20_9
*801 FILLER_21_106
*802 FILLER_21_147
*803 FILLER_21_20
*804 FILLER_21_40
*805 FILLER_21_46
*806 FILLER_21_51
*807 FILLER_21_55
*808 FILLER_21_59
*809 FILLER_21_81
*810 FILLER_21_87
*811 FILLER_22_148
*812 FILLER_22_35
*813 FILLER_22_75
*814 FILLER_22_83
*815 FILLER_22_85
*816 FILLER_22_97
*817 FILLER_23_139
*818 FILLER_23_41
*819 FILLER_23_47
*820 FILLER_23_52
*821 FILLER_23_57
*822 FILLER_23_81
*823 FILLER_24_139
*824 FILLER_24_141
*825 FILLER_24_158
*826 FILLER_24_46
*827 FILLER_24_63
*828 FILLER_25_102
*829 FILLER_25_125
*830 FILLER_25_46
*831 FILLER_25_69
*832 FILLER_26_29
*833 FILLER_26_3
*834 FILLER_26_83
*835 FILLER_27_3
*836 FILLER_2_27
*837 FILLER_2_71
*838 FILLER_3_90
*839 FILLER_4_19
*840 FILLER_4_87
*841 FILLER_5_26
*842 FILLER_5_36
*843 FILLER_5_7
*844 FILLER_5_93
*845 FILLER_6_10
*846 FILLER_6_113
*847 FILLER_6_24
*848 FILLER_7_113
*849 FILLER_7_14
*850 FILLER_7_158
*851 FILLER_7_33
*852 FILLER_7_37
*853 FILLER_7_40
*854 FILLER_7_53
*855 FILLER_8_108
*856 FILLER_8_136
*857 FILLER_8_17
*858 FILLER_8_25
*859 FILLER_8_29
*860 FILLER_8_35
*861 FILLER_8_38
*862 FILLER_8_50
*863 FILLER_8_56
*864 FILLER_8_7
*865 FILLER_8_96
*866 FILLER_8_99
*867 FILLER_9_10
*868 FILLER_9_105
*869 FILLER_9_122
*870 FILLER_9_18
*871 FILLER_9_57
*872 FILLER_9_65
*873 PHY_0
*874 PHY_1
*875 PHY_10
*876 PHY_11
*877 PHY_12
*878 PHY_13
*879 PHY_14
*880 PHY_15
*881 PHY_16
*882 PHY_17
*883 PHY_18
*884 PHY_19
*885 PHY_2
*886 PHY_20
*887 PHY_21
*888 PHY_22
*889 PHY_23
*890 PHY_24
*891 PHY_25
*892 PHY_26
*893 PHY_27
*894 PHY_28
*895 PHY_29
*896 PHY_3
*897 PHY_30
*898 PHY_31
*899 PHY_32
*900 PHY_33
*901 PHY_34
*902 PHY_35
*903 PHY_36
*904 PHY_37
*905 PHY_38
*906 PHY_39
*907 PHY_4
*908 PHY_40
*909 PHY_41
*910 PHY_42
*911 PHY_43
*912 PHY_44
*913 PHY_45
*914 PHY_46
*915 PHY_47
*916 PHY_48
*917 PHY_49
*918 PHY_5
*919 PHY_50
*920 PHY_51
*921 PHY_52
*922 PHY_53
*923 PHY_54
*924 PHY_55
*925 PHY_6
*926 PHY_7
*927 PHY_8
*928 PHY_9
*929 TAP_100
*930 TAP_101
*931 TAP_102
*932 TAP_103
*933 TAP_104
*934 TAP_105
*935 TAP_106
*936 TAP_107
*937 TAP_108
*938 TAP_109
*939 TAP_110
*940 TAP_111
*941 TAP_112
*942 TAP_113
*943 TAP_114
*944 TAP_115
*945 TAP_116
*946 TAP_117
*947 TAP_118
*948 TAP_119
*949 TAP_120
*950 TAP_121
*951 TAP_122
*952 TAP_123
*953 TAP_124
*954 TAP_125
*955 TAP_126
*956 TAP_127
*957 TAP_128
*958 TAP_129
*959 TAP_130
*960 TAP_56
*961 TAP_57
*962 TAP_58
*963 TAP_59
*964 TAP_60
*965 TAP_61
*966 TAP_62
*967 TAP_63
*968 TAP_64
*969 TAP_65
*970 TAP_66
*971 TAP_67
*972 TAP_68
*973 TAP_69
*974 TAP_70
*975 TAP_71
*976 TAP_72
*977 TAP_73
*978 TAP_74
*979 TAP_75
*980 TAP_76
*981 TAP_77
*982 TAP_78
*983 TAP_79
*984 TAP_80
*985 TAP_81
*986 TAP_82
*987 TAP_83
*988 TAP_84
*989 TAP_85
*990 TAP_86
*991 TAP_87
*992 TAP_88
*993 TAP_89
*994 TAP_90
*995 TAP_91
*996 TAP_92
*997 TAP_93
*998 TAP_94
*999 TAP_95
*1000 TAP_96
*1001 TAP_97
*1002 TAP_98
*1003 TAP_99
*1004 Test_en_E_FTB01
*1005 Test_en_N_FTB01
*1006 Test_en_W_FTB01
*1007 _32_
*1008 _33_
*1009 _34_
*1010 _35_
*1011 _36_
*1012 _37_
*1013 _38_
*1014 _39_
*1015 _40_
*1016 _41_
*1017 _42_
*1018 _43_
*1019 _44_
*1020 _45_
*1021 _46_
*1022 _47_
*1023 _48_
*1024 _49_
*1025 _50_
*1026 _51_
*1027 _52_
*1028 _53_
*1029 _54_
*1030 _55_
*1031 _56_
*1032 _57_
*1033 _58_
*1034 _59_
*1035 _60_
*1036 _61_
*1037 _62_
*1038 _63_
*1039 _64_
*1040 _65_
*1041 _66_
*1042 _67_
*1043 _68_
*1044 _69_
*1045 _70_
*1046 _71_
*1047 clk_2_N_FTB01
*1048 clk_2_S_FTB01
*1049 clk_3_N_FTB01
*1050 clk_3_S_FTB01
*1051 input1
*1052 input10
*1053 input11
*1054 input12
*1055 input13
*1056 input14
*1057 input15
*1058 input16
*1059 input17
*1060 input18
*1061 input19
*1062 input2
*1063 input20
*1064 input21
*1065 input22
*1066 input23
*1067 input24
*1068 input25
*1069 input26
*1070 input27
*1071 input28
*1072 input29
*1073 input3
*1074 input30
*1075 input31
*1076 input32
*1077 input33
*1078 input34
*1079 input35
*1080 input36
*1081 input37
*1082 input38
*1083 input39
*1084 input4
*1085 input40
*1086 input41
*1087 input42
*1088 input43
*1089 input44
*1090 input45
*1091 input46
*1092 input5
*1093 input6
*1094 input7
*1095 input8
*1096 input9
*1097 mem_right_ipin_0\.sky130_fd_sc_hd__dfxtp_1_0_
*1098 mem_right_ipin_0\.sky130_fd_sc_hd__dfxtp_1_1_
*1099 mem_right_ipin_0\.sky130_fd_sc_hd__dfxtp_1_2_