*SPEF "ieee 1481-1999"
*DESIGN "grid_clb"
*DATE "11:11:11 Fri 11 11, 1111"
*VENDOR "OpenRCX"
*PROGRAM "Parallel Extraction"
*VERSION "1.0"
*DESIGN_FLOW "NAME_SCOPE LOCAL" "PIN_CAP NONE"
*DIVIDER /
*DELIMITER :
*BUS_DELIMITER []
*T_UNIT 1 NS
*C_UNIT 1 PF
*R_UNIT 1 OHM
*L_UNIT 1 HENRY

*NAME_MAP
*1 SC_IN_TOP
*2 SC_OUT_BOT
*3 SC_OUT_TOP
*4 Test_en_E_in
*5 Test_en_E_out
*6 Test_en_W_in
*7 Test_en_W_out
*10 bottom_width_0_height_0__pin_50_
*11 net105
*12 ccff_head
*13 ccff_tail
*14 clk_0_N_in
*15 clk_0_S_in
*16 prog_clk_0_E_out
*17 prog_clk_0_N_in
*18 prog_clk_0_N_out
*19 prog_clk_0_S_in
*20 prog_clk_0_S_out
*21 prog_clk_0_W_out
*22 right_width_0_height_0__pin_16_
*23 right_width_0_height_0__pin_17_
*24 right_width_0_height_0__pin_18_
*25 right_width_0_height_0__pin_19_
*26 right_width_0_height_0__pin_20_
*27 right_width_0_height_0__pin_21_
*28 right_width_0_height_0__pin_22_
*29 right_width_0_height_0__pin_23_
*30 right_width_0_height_0__pin_24_
*31 right_width_0_height_0__pin_25_
*32 right_width_0_height_0__pin_26_
*33 right_width_0_height_0__pin_27_
*34 right_width_0_height_0__pin_28_
*35 right_width_0_height_0__pin_29_
*36 right_width_0_height_0__pin_30_
*37 right_width_0_height_0__pin_31_
*38 right_width_0_height_0__pin_42_lower
*39 right_width_0_height_0__pin_42_upper
*40 right_width_0_height_0__pin_43_lower
*41 right_width_0_height_0__pin_43_upper
*42 right_width_0_height_0__pin_44_lower
*43 right_width_0_height_0__pin_44_upper
*44 right_width_0_height_0__pin_45_lower
*45 right_width_0_height_0__pin_45_upper
*46 right_width_0_height_0__pin_46_lower
*47 right_width_0_height_0__pin_46_upper
*48 right_width_0_height_0__pin_47_lower
*49 right_width_0_height_0__pin_47_upper
*50 right_width_0_height_0__pin_48_lower
*51 right_width_0_height_0__pin_48_upper
*52 right_width_0_height_0__pin_49_lower
*53 right_width_0_height_0__pin_49_upper
*54 top_width_0_height_0__pin_0_
*55 top_width_0_height_0__pin_10_
*56 top_width_0_height_0__pin_11_
*57 top_width_0_height_0__pin_12_
*58 top_width_0_height_0__pin_13_
*59 top_width_0_height_0__pin_14_
*60 top_width_0_height_0__pin_15_
*61 top_width_0_height_0__pin_1_
*62 top_width_0_height_0__pin_2_
*63 top_width_0_height_0__pin_32_
*64 top_width_0_height_0__pin_33_
*65 top_width_0_height_0__pin_34_lower
*66 top_width_0_height_0__pin_34_upper
*67 top_width_0_height_0__pin_35_lower
*68 top_width_0_height_0__pin_35_upper
*69 top_width_0_height_0__pin_36_lower
*70 top_width_0_height_0__pin_36_upper
*71 top_width_0_height_0__pin_37_lower
*72 top_width_0_height_0__pin_37_upper
*73 top_width_0_height_0__pin_38_lower
*74 top_width_0_height_0__pin_38_upper
*75 top_width_0_height_0__pin_39_lower
*76 top_width_0_height_0__pin_39_upper
*77 top_width_0_height_0__pin_3_
*78 top_width_0_height_0__pin_40_lower
*79 top_width_0_height_0__pin_40_upper
*80 top_width_0_height_0__pin_41_lower
*81 top_width_0_height_0__pin_41_upper
*82 top_width_0_height_0__pin_4_
*83 top_width_0_height_0__pin_5_
*84 top_width_0_height_0__pin_6_
*85 top_width_0_height_0__pin_7_
*86 top_width_0_height_0__pin_8_
*87 top_width_0_height_0__pin_9_
*88 ltile_clb_mode__0\.Test_en
*89 ltile_clb_mode__0\.clb_clk
*90 ltile_clb_mode__0\.direct_interc_29_\.in
*91 ltile_clb_mode__0\.direct_interc_36_\.in
*92 ltile_clb_mode__0\.direct_interc_43_\.in
*93 ltile_clb_mode__0\.direct_interc_50_\.in
*94 ltile_clb_mode__0\.direct_interc_57_\.in
*95 ltile_clb_mode__0\.direct_interc_64_\.in
*96 ltile_clb_mode__0\.direct_interc_71_\.in
*97 ltile_clb_mode__0\.ltile_fle_0\.ccff_tail
*98 ltile_clb_mode__0\.ltile_fle_0\.ltile_phy_fabric_0\.direct_interc_8_\.in
*99 ltile_clb_mode__0\.ltile_fle_0\.ltile_phy_fabric_0\.direct_interc_9_\.in
*100 ltile_clb_mode__0\.ltile_fle_0\.ltile_phy_fabric_0\.ltile_clb_fle_ff_0\.ff_D
*101 ltile_clb_mode__0\.ltile_fle_0\.ltile_phy_fabric_0\.ltile_frac_logic_0\.ccff_tail
*102 ltile_clb_mode__0\.ltile_fle_0\.ltile_phy_fabric_0\.ltile_frac_logic_0\.ltile_frac_lut4_0\.ccff_tail
*103 ltile_clb_mode__0\.ltile_fle_0\.ltile_phy_fabric_0\.ltile_frac_logic_0\.ltile_frac_lut4_0\.frac_lut4_0_\.frac_lut4_mux_0_\.in\[0\]
*104 ltile_clb_mode__0\.ltile_fle_0\.ltile_phy_fabric_0\.ltile_frac_logic_0\.ltile_frac_lut4_0\.frac_lut4_0_\.frac_lut4_mux_0_\.in\[10\]
*105 ltile_clb_mode__0\.ltile_fle_0\.ltile_phy_fabric_0\.ltile_frac_logic_0\.ltile_frac_lut4_0\.frac_lut4_0_\.frac_lut4_mux_0_\.in\[11\]
*106 ltile_clb_mode__0\.ltile_fle_0\.ltile_phy_fabric_0\.ltile_frac_logic_0\.ltile_frac_lut4_0\.frac_lut4_0_\.frac_lut4_mux_0_\.in\[12\]
*107 ltile_clb_mode__0\.ltile_fle_0\.ltile_phy_fabric_0\.ltile_frac_logic_0\.ltile_frac_lut4_0\.frac_lut4_0_\.frac_lut4_mux_0_\.in\[13\]
*108 ltile_clb_mode__0\.ltile_fle_0\.ltile_phy_fabric_0\.ltile_frac_logic_0\.ltile_frac_lut4_0\.frac_lut4_0_\.frac_lut4_mux_0_\.in\[14\]
*109 ltile_clb_mode__0\.ltile_fle_0\.ltile_phy_fabric_0\.ltile_frac_logic_0\.ltile_frac_lut4_0\.frac_lut4_0_\.frac_lut4_mux_0_\.in\[15\]
*110 ltile_clb_mode__0\.ltile_fle_0\.ltile_phy_fabric_0\.ltile_frac_logic_0\.ltile_frac_lut4_0\.frac_lut4_0_\.frac_lut4_mux_0_\.in\[1\]
*111 ltile_clb_mode__0\.ltile_fle_0\.ltile_phy_fabric_0\.ltile_frac_logic_0\.ltile_frac_lut4_0\.frac_lut4_0_\.frac_lut4_mux_0_\.in\[2\]
*112 ltile_clb_mode__0\.ltile_fle_0\.ltile_phy_fabric_0\.ltile_frac_logic_0\.ltile_frac_lut4_0\.frac_lut4_0_\.frac_lut4_mux_0_\.in\[3\]
*113 ltile_clb_mode__0\.ltile_fle_0\.ltile_phy_fabric_0\.ltile_frac_logic_0\.ltile_frac_lut4_0\.frac_lut4_0_\.frac_lut4_mux_0_\.in\[4\]
*114 ltile_clb_mode__0\.ltile_fle_0\.ltile_phy_fabric_0\.ltile_frac_logic_0\.ltile_frac_lut4_0\.frac_lut4_0_\.frac_lut4_mux_0_\.in\[5\]
*115 ltile_clb_mode__0\.ltile_fle_0\.ltile_phy_fabric_0\.ltile_frac_logic_0\.ltile_frac_lut4_0\.frac_lut4_0_\.frac_lut4_mux_0_\.in\[6\]
*116 ltile_clb_mode__0\.ltile_fle_0\.ltile_phy_fabric_0\.ltile_frac_logic_0\.ltile_frac_lut4_0\.frac_lut4_0_\.frac_lut4_mux_0_\.in\[7\]
*117 ltile_clb_mode__0\.ltile_fle_0\.ltile_phy_fabric_0\.ltile_frac_logic_0\.ltile_frac_lut4_0\.frac_lut4_0_\.frac_lut4_mux_0_\.in\[8\]
*118 ltile_clb_mode__0\.ltile_fle_0\.ltile_phy_fabric_0\.ltile_frac_logic_0\.ltile_frac_lut4_0\.frac_lut4_0_\.frac_lut4_mux_0_\.in\[9\]
*119 ltile_clb_mode__0\.ltile_fle_0\.ltile_phy_fabric_0\.ltile_frac_logic_0\.ltile_frac_lut4_0\.frac_lut4_0_\.frac_lut4_mux_0_\.lut3_out\[0\]
*120 ltile_clb_mode__0\.ltile_fle_0\.ltile_phy_fabric_0\.ltile_frac_logic_0\.ltile_frac_lut4_0\.frac_lut4_0_\.frac_lut4_mux_0_\.lut4_out
*121 ltile_clb_mode__0\.ltile_fle_0\.ltile_phy_fabric_0\.ltile_frac_logic_0\.ltile_frac_lut4_0\.frac_lut4_0_\.frac_lut4_mux_0_\.sky130_fd_sc_hd__buf_2_3_X
*122 ltile_clb_mode__0\.ltile_fle_0\.ltile_phy_fabric_0\.ltile_frac_logic_0\.ltile_frac_lut4_0\.frac_lut4_0_\.frac_lut4_mux_0_\.sky130_fd_sc_hd__buf_2_4_X
*123 ltile_clb_mode__0\.ltile_fle_0\.ltile_phy_fabric_0\.ltile_frac_logic_0\.ltile_frac_lut4_0\.frac_lut4_0_\.frac_lut4_mux_0_\.sky130_fd_sc_hd__buf_2_5_X
*124 ltile_clb_mode__0\.ltile_fle_0\.ltile_phy_fabric_0\.ltile_frac_logic_0\.ltile_frac_lut4_0\.frac_lut4_0_\.frac_lut4_mux_0_\.sky130_fd_sc_hd__buf_2_6_X
*125 ltile_clb_mode__0\.ltile_fle_0\.ltile_phy_fabric_0\.ltile_frac_logic_0\.ltile_frac_lut4_0\.frac_lut4_0_\.frac_lut4_mux_0_\.sky130_fd_sc_hd__mux2_1_0_X
*126 ltile_clb_mode__0\.ltile_fle_0\.ltile_phy_fabric_0\.ltile_frac_logic_0\.ltile_frac_lut4_0\.frac_lut4_0_\.frac_lut4_mux_0_\.sky130_fd_sc_hd__mux2_1_10_X
*127 ltile_clb_mode__0\.ltile_fle_0\.ltile_phy_fabric_0\.ltile_frac_logic_0\.ltile_frac_lut4_0\.frac_lut4_0_\.frac_lut4_mux_0_\.sky130_fd_sc_hd__mux2_1_11_X
*128 ltile_clb_mode__0\.ltile_fle_0\.ltile_phy_fabric_0\.ltile_frac_logic_0\.ltile_frac_lut4_0\.frac_lut4_0_\.frac_lut4_mux_0_\.sky130_fd_sc_hd__mux2_1_12_X
*129 ltile_clb_mode__0\.ltile_fle_0\.ltile_phy_fabric_0\.ltile_frac_logic_0\.ltile_frac_lut4_0\.frac_lut4_0_\.frac_lut4_mux_0_\.sky130_fd_sc_hd__mux2_1_13_X
*130 ltile_clb_mode__0\.ltile_fle_0\.ltile_phy_fabric_0\.ltile_frac_logic_0\.ltile_frac_lut4_0\.frac_lut4_0_\.frac_lut4_mux_0_\.sky130_fd_sc_hd__mux2_1_14_X
*131 ltile_clb_mode__0\.ltile_fle_0\.ltile_phy_fabric_0\.ltile_frac_logic_0\.ltile_frac_lut4_0\.frac_lut4_0_\.frac_lut4_mux_0_\.sky130_fd_sc_hd__mux2_1_1_X
*132 ltile_clb_mode__0\.ltile_fle_0\.ltile_phy_fabric_0\.ltile_frac_logic_0\.ltile_frac_lut4_0\.frac_lut4_0_\.frac_lut4_mux_0_\.sky130_fd_sc_hd__mux2_1_2_X
*133 ltile_clb_mode__0\.ltile_fle_0\.ltile_phy_fabric_0\.ltile_frac_logic_0\.ltile_frac_lut4_0\.frac_lut4_0_\.frac_lut4_mux_0_\.sky130_fd_sc_hd__mux2_1_3_X
*134 ltile_clb_mode__0\.ltile_fle_0\.ltile_phy_fabric_0\.ltile_frac_logic_0\.ltile_frac_lut4_0\.frac_lut4_0_\.frac_lut4_mux_0_\.sky130_fd_sc_hd__mux2_1_4_X
*135 ltile_clb_mode__0\.ltile_fle_0\.ltile_phy_fabric_0\.ltile_frac_logic_0\.ltile_frac_lut4_0\.frac_lut4_0_\.frac_lut4_mux_0_\.sky130_fd_sc_hd__mux2_1_5_X
*136 ltile_clb_mode__0\.ltile_fle_0\.ltile_phy_fabric_0\.ltile_frac_logic_0\.ltile_frac_lut4_0\.frac_lut4_0_\.frac_lut4_mux_0_\.sky130_fd_sc_hd__mux2_1_6_X
*137 ltile_clb_mode__0\.ltile_fle_0\.ltile_phy_fabric_0\.ltile_frac_logic_0\.ltile_frac_lut4_0\.frac_lut4_0_\.frac_lut4_mux_0_\.sky130_fd_sc_hd__mux2_1_7_X
*138 ltile_clb_mode__0\.ltile_fle_0\.ltile_phy_fabric_0\.ltile_frac_logic_0\.ltile_frac_lut4_0\.frac_lut4_0_\.frac_lut4_mux_0_\.sky130_fd_sc_hd__mux2_1_8_X
*139 ltile_clb_mode__0\.ltile_fle_0\.ltile_phy_fabric_0\.ltile_frac_logic_0\.ltile_frac_lut4_0\.frac_lut4_0_\.frac_lut4_mux_0_\.sky130_fd_sc_hd__mux2_1_9_X
*140 ltile_clb_mode__0\.ltile_fle_0\.ltile_phy_fabric_0\.ltile_frac_logic_0\.ltile_frac_lut4_0\.frac_lut4_0_\.sky130_fd_sc_hd__buf_2_0_X
*141 ltile_clb_mode__0\.ltile_fle_0\.ltile_phy_fabric_0\.ltile_frac_logic_0\.ltile_frac_lut4_0\.frac_lut4_0_\.sky130_fd_sc_hd__buf_2_1_X
*142 ltile_clb_mode__0\.ltile_fle_0\.ltile_phy_fabric_0\.ltile_frac_logic_0\.ltile_frac_lut4_0\.frac_lut4_0_\.sky130_fd_sc_hd__buf_2_2_X
*143 ltile_clb_mode__0\.ltile_fle_0\.ltile_phy_fabric_0\.ltile_frac_logic_0\.ltile_frac_lut4_0\.frac_lut4_0_\.sky130_fd_sc_hd__buf_2_3_X
*144 ltile_clb_mode__0\.ltile_fle_0\.ltile_phy_fabric_0\.ltile_frac_logic_0\.ltile_frac_lut4_0\.frac_lut4_0_\.sky130_fd_sc_hd__or2_1_0_X
*145 ltile_clb_mode__0\.ltile_fle_0\.ltile_phy_fabric_0\.ltile_frac_logic_0\.ltile_frac_lut4_0\.frac_lut4_sky130_fd_sc_hd__dfxtp_1_mem\.delay_ccff_head
*146 ltile_clb_mode__0\.ltile_fle_0\.ltile_phy_fabric_0\.ltile_frac_logic_0\.ltile_frac_lut4_0\.frac_lut4_sky130_fd_sc_hd__dfxtp_1_mem\.prog_clk
*147 ltile_clb_mode__0\.ltile_fle_0\.ltile_phy_fabric_0\.ltile_frac_logic_0\.mem_frac_logic_out_0\.mem_out\[0\]
*148 ltile_clb_mode__0\.ltile_fle_0\.ltile_phy_fabric_0\.ltile_frac_logic_0\.mux_frac_logic_out_0\.out
*149 ltile_clb_mode__0\.ltile_fle_0\.ltile_phy_fabric_0\.ltile_frac_logic_0\.mux_frac_logic_out_0\.sky130_fd_sc_hd__mux2_1_0_X
*150 ltile_clb_mode__0\.ltile_fle_0\.ltile_phy_fabric_0\.mem_fabric_out_0\.ccff_tail
*151 ltile_clb_mode__0\.ltile_fle_0\.ltile_phy_fabric_0\.mem_fabric_out_0\.mem_out\[0\]
*152 ltile_clb_mode__0\.ltile_fle_0\.ltile_phy_fabric_0\.mem_fabric_out_1\.ccff_tail
*153 ltile_clb_mode__0\.ltile_fle_0\.ltile_phy_fabric_0\.mem_fabric_out_1\.mem_out\[0\]
*154 ltile_clb_mode__0\.ltile_fle_0\.ltile_phy_fabric_0\.mem_ff_0_D_0\.mem_out\[0\]
*155 ltile_clb_mode__0\.ltile_fle_0\.ltile_phy_fabric_0\.mux_fabric_out_0\.sky130_fd_sc_hd__mux2_1_0_X
*156 ltile_clb_mode__0\.ltile_fle_0\.ltile_phy_fabric_0\.mux_fabric_out_1\.sky130_fd_sc_hd__mux2_1_0_X
*157 ltile_clb_mode__0\.ltile_fle_0\.ltile_phy_fabric_0\.mux_ff_0_D_0\.sky130_fd_sc_hd__mux2_1_0_X
*158 ltile_clb_mode__0\.ltile_fle_1\.ccff_tail
*159 ltile_clb_mode__0\.ltile_fle_1\.ltile_phy_fabric_0\.direct_interc_8_\.in
*160 ltile_clb_mode__0\.ltile_fle_1\.ltile_phy_fabric_0\.direct_interc_9_\.in
*161 ltile_clb_mode__0\.ltile_fle_1\.ltile_phy_fabric_0\.ltile_clb_fle_ff_0\.ff_D
*162 ltile_clb_mode__0\.ltile_fle_1\.ltile_phy_fabric_0\.ltile_frac_logic_0\.ccff_tail
*163 ltile_clb_mode__0\.ltile_fle_1\.ltile_phy_fabric_0\.ltile_frac_logic_0\.ltile_frac_lut4_0\.ccff_tail
*164 ltile_clb_mode__0\.ltile_fle_1\.ltile_phy_fabric_0\.ltile_frac_logic_0\.ltile_frac_lut4_0\.frac_lut4_0_\.frac_lut4_mux_0_\.in\[0\]
*165 ltile_clb_mode__0\.ltile_fle_1\.ltile_phy_fabric_0\.ltile_frac_logic_0\.ltile_frac_lut4_0\.frac_lut4_0_\.frac_lut4_mux_0_\.in\[10\]
*166 ltile_clb_mode__0\.ltile_fle_1\.ltile_phy_fabric_0\.ltile_frac_logic_0\.ltile_frac_lut4_0\.frac_lut4_0_\.frac_lut4_mux_0_\.in\[11\]
*167 ltile_clb_mode__0\.ltile_fle_1\.ltile_phy_fabric_0\.ltile_frac_logic_0\.ltile_frac_lut4_0\.frac_lut4_0_\.frac_lut4_mux_0_\.in\[12\]
*168 ltile_clb_mode__0\.ltile_fle_1\.ltile_phy_fabric_0\.ltile_frac_logic_0\.ltile_frac_lut4_0\.frac_lut4_0_\.frac_lut4_mux_0_\.in\[13\]
*169 ltile_clb_mode__0\.ltile_fle_1\.ltile_phy_fabric_0\.ltile_frac_logic_0\.ltile_frac_lut4_0\.frac_lut4_0_\.frac_lut4_mux_0_\.in\[14\]
*170 ltile_clb_mode__0\.ltile_fle_1\.ltile_phy_fabric_0\.ltile_frac_logic_0\.ltile_frac_lut4_0\.frac_lut4_0_\.frac_lut4_mux_0_\.in\[15\]
*171 ltile_clb_mode__0\.ltile_fle_1\.ltile_phy_fabric_0\.ltile_frac_logic_0\.ltile_frac_lut4_0\.frac_lut4_0_\.frac_lut4_mux_0_\.in\[1\]
*172 ltile_clb_mode__0\.ltile_fle_1\.ltile_phy_fabric_0\.ltile_frac_logic_0\.ltile_frac_lut4_0\.frac_lut4_0_\.frac_lut4_mux_0_\.in\[2\]
*173 ltile_clb_mode__0\.ltile_fle_1\.ltile_phy_fabric_0\.ltile_frac_logic_0\.ltile_frac_lut4_0\.frac_lut4_0_\.frac_lut4_mux_0_\.in\[3\]
*174 ltile_clb_mode__0\.ltile_fle_1\.ltile_phy_fabric_0\.ltile_frac_logic_0\.ltile_frac_lut4_0\.frac_lut4_0_\.frac_lut4_mux_0_\.in\[4\]
*175 ltile_clb_mode__0\.ltile_fle_1\.ltile_phy_fabric_0\.ltile_frac_logic_0\.ltile_frac_lut4_0\.frac_lut4_0_\.frac_lut4_mux_0_\.in\[5\]
*176 ltile_clb_mode__0\.ltile_fle_1\.ltile_phy_fabric_0\.ltile_frac_logic_0\.ltile_frac_lut4_0\.frac_lut4_0_\.frac_lut4_mux_0_\.in\[6\]
*177 ltile_clb_mode__0\.ltile_fle_1\.ltile_phy_fabric_0\.ltile_frac_logic_0\.ltile_frac_lut4_0\.frac_lut4_0_\.frac_lut4_mux_0_\.in\[7\]
*178 ltile_clb_mode__0\.ltile_fle_1\.ltile_phy_fabric_0\.ltile_frac_logic_0\.ltile_frac_lut4_0\.frac_lut4_0_\.frac_lut4_mux_0_\.in\[8\]
*179 ltile_clb_mode__0\.ltile_fle_1\.ltile_phy_fabric_0\.ltile_frac_logic_0\.ltile_frac_lut4_0\.frac_lut4_0_\.frac_lut4_mux_0_\.in\[9\]
*180 ltile_clb_mode__0\.ltile_fle_1\.ltile_phy_fabric_0\.ltile_frac_logic_0\.ltile_frac_lut4_0\.frac_lut4_0_\.frac_lut4_mux_0_\.lut3_out\[0\]
*181 ltile_clb_mode__0\.ltile_fle_1\.ltile_phy_fabric_0\.ltile_frac_logic_0\.ltile_frac_lut4_0\.frac_lut4_0_\.frac_lut4_mux_0_\.lut4_out
*182 ltile_clb_mode__0\.ltile_fle_1\.ltile_phy_fabric_0\.ltile_frac_logic_0\.ltile_frac_lut4_0\.frac_lut4_0_\.frac_lut4_mux_0_\.sky130_fd_sc_hd__buf_2_3_X
*183 ltile_clb_mode__0\.ltile_fle_1\.ltile_phy_fabric_0\.ltile_frac_logic_0\.ltile_frac_lut4_0\.frac_lut4_0_\.frac_lut4_mux_0_\.sky130_fd_sc_hd__buf_2_4_X
*184 ltile_clb_mode__0\.ltile_fle_1\.ltile_phy_fabric_0\.ltile_frac_logic_0\.ltile_frac_lut4_0\.frac_lut4_0_\.frac_lut4_mux_0_\.sky130_fd_sc_hd__buf_2_5_X
*185 ltile_clb_mode__0\.ltile_fle_1\.ltile_phy_fabric_0\.ltile_frac_logic_0\.ltile_frac_lut4_0\.frac_lut4_0_\.frac_lut4_mux_0_\.sky130_fd_sc_hd__buf_2_6_X
*186 ltile_clb_mode__0\.ltile_fle_1\.ltile_phy_fabric_0\.ltile_frac_logic_0\.ltile_frac_lut4_0\.frac_lut4_0_\.frac_lut4_mux_0_\.sky130_fd_sc_hd__mux2_1_0_X
*187 ltile_clb_mode__0\.ltile_fle_1\.ltile_phy_fabric_0\.ltile_frac_logic_0\.ltile_frac_lut4_0\.frac_lut4_0_\.frac_lut4_mux_0_\.sky130_fd_sc_hd__mux2_1_10_X
*188 ltile_clb_mode__0\.ltile_fle_1\.ltile_phy_fabric_0\.ltile_frac_logic_0\.ltile_frac_lut4_0\.frac_lut4_0_\.frac_lut4_mux_0_\.sky130_fd_sc_hd__mux2_1_11_X
*189 ltile_clb_mode__0\.ltile_fle_1\.ltile_phy_fabric_0\.ltile_frac_logic_0\.ltile_frac_lut4_0\.frac_lut4_0_\.frac_lut4_mux_0_\.sky130_fd_sc_hd__mux2_1_12_X
*190 ltile_clb_mode__0\.ltile_fle_1\.ltile_phy_fabric_0\.ltile_frac_logic_0\.ltile_frac_lut4_0\.frac_lut4_0_\.frac_lut4_mux_0_\.sky130_fd_sc_hd__mux2_1_13_X
*191 ltile_clb_mode__0\.ltile_fle_1\.ltile_phy_fabric_0\.ltile_frac_logic_0\.ltile_frac_lut4_0\.frac_lut4_0_\.frac_lut4_mux_0_\.sky130_fd_sc_hd__mux2_1_14_X
*192 ltile_clb_mode__0\.ltile_fle_1\.ltile_phy_fabric_0\.ltile_frac_logic_0\.ltile_frac_lut4_0\.frac_lut4_0_\.frac_lut4_mux_0_\.sky130_fd_sc_hd__mux2_1_1_X
*193 ltile_clb_mode__0\.ltile_fle_1\.ltile_phy_fabric_0\.ltile_frac_logic_0\.ltile_frac_lut4_0\.frac_lut4_0_\.frac_lut4_mux_0_\.sky130_fd_sc_hd__mux2_1_2_X
*194 ltile_clb_mode__0\.ltile_fle_1\.ltile_phy_fabric_0\.ltile_frac_logic_0\.ltile_frac_lut4_0\.frac_lut4_0_\.frac_lut4_mux_0_\.sky130_fd_sc_hd__mux2_1_3_X
*195 ltile_clb_mode__0\.ltile_fle_1\.ltile_phy_fabric_0\.ltile_frac_logic_0\.ltile_frac_lut4_0\.frac_lut4_0_\.frac_lut4_mux_0_\.sky130_fd_sc_hd__mux2_1_4_X
*196 ltile_clb_mode__0\.ltile_fle_1\.ltile_phy_fabric_0\.ltile_frac_logic_0\.ltile_frac_lut4_0\.frac_lut4_0_\.frac_lut4_mux_0_\.sky130_fd_sc_hd__mux2_1_5_X
*197 ltile_clb_mode__0\.ltile_fle_1\.ltile_phy_fabric_0\.ltile_frac_logic_0\.ltile_frac_lut4_0\.frac_lut4_0_\.frac_lut4_mux_0_\.sky130_fd_sc_hd__mux2_1_6_X
*198 ltile_clb_mode__0\.ltile_fle_1\.ltile_phy_fabric_0\.ltile_frac_logic_0\.ltile_frac_lut4_0\.frac_lut4_0_\.frac_lut4_mux_0_\.sky130_fd_sc_hd__mux2_1_7_X
*199 ltile_clb_mode__0\.ltile_fle_1\.ltile_phy_fabric_0\.ltile_frac_logic_0\.ltile_frac_lut4_0\.frac_lut4_0_\.frac_lut4_mux_0_\.sky130_fd_sc_hd__mux2_1_8_X
*200 ltile_clb_mode__0\.ltile_fle_1\.ltile_phy_fabric_0\.ltile_frac_logic_0\.ltile_frac_lut4_0\.frac_lut4_0_\.frac_lut4_mux_0_\.sky130_fd_sc_hd__mux2_1_9_X
*201 ltile_clb_mode__0\.ltile_fle_1\.ltile_phy_fabric_0\.ltile_frac_logic_0\.ltile_frac_lut4_0\.frac_lut4_0_\.sky130_fd_sc_hd__buf_2_0_X
*202 ltile_clb_mode__0\.ltile_fle_1\.ltile_phy_fabric_0\.ltile_frac_logic_0\.ltile_frac_lut4_0\.frac_lut4_0_\.sky130_fd_sc_hd__buf_2_1_X
*203 ltile_clb_mode__0\.ltile_fle_1\.ltile_phy_fabric_0\.ltile_frac_logic_0\.ltile_frac_lut4_0\.frac_lut4_0_\.sky130_fd_sc_hd__buf_2_2_X
*204 ltile_clb_mode__0\.ltile_fle_1\.ltile_phy_fabric_0\.ltile_frac_logic_0\.ltile_frac_lut4_0\.frac_lut4_0_\.sky130_fd_sc_hd__buf_2_3_X
*205 ltile_clb_mode__0\.ltile_fle_1\.ltile_phy_fabric_0\.ltile_frac_logic_0\.ltile_frac_lut4_0\.frac_lut4_0_\.sky130_fd_sc_hd__or2_1_0_X
*206 ltile_clb_mode__0\.ltile_fle_1\.ltile_phy_fabric_0\.ltile_frac_logic_0\.ltile_frac_lut4_0\.frac_lut4_sky130_fd_sc_hd__dfxtp_1_mem\.delay_ccff_head
*207 ltile_clb_mode__0\.ltile_fle_1\.ltile_phy_fabric_0\.ltile_frac_logic_0\.mem_frac_logic_out_0\.mem_out\[0\]
*208 ltile_clb_mode__0\.ltile_fle_1\.ltile_phy_fabric_0\.ltile_frac_logic_0\.mux_frac_logic_out_0\.out
*209 ltile_clb_mode__0\.ltile_fle_1\.ltile_phy_fabric_0\.ltile_frac_logic_0\.mux_frac_logic_out_0\.sky130_fd_sc_hd__mux2_1_0_X
*210 ltile_clb_mode__0\.ltile_fle_1\.ltile_phy_fabric_0\.mem_fabric_out_0\.ccff_tail
*211 ltile_clb_mode__0\.ltile_fle_1\.ltile_phy_fabric_0\.mem_fabric_out_0\.mem_out\[0\]
*212 ltile_clb_mode__0\.ltile_fle_1\.ltile_phy_fabric_0\.mem_fabric_out_1\.ccff_tail
*213 ltile_clb_mode__0\.ltile_fle_1\.ltile_phy_fabric_0\.mem_fabric_out_1\.mem_out\[0\]
*214 ltile_clb_mode__0\.ltile_fle_1\.ltile_phy_fabric_0\.mem_ff_0_D_0\.mem_out\[0\]
*215 ltile_clb_mode__0\.ltile_fle_1\.ltile_phy_fabric_0\.mux_fabric_out_0\.sky130_fd_sc_hd__mux2_1_0_X
*216 ltile_clb_mode__0\.ltile_fle_1\.ltile_phy_fabric_0\.mux_fabric_out_1\.sky130_fd_sc_hd__mux2_1_0_X
*217 ltile_clb_mode__0\.ltile_fle_1\.ltile_phy_fabric_0\.mux_ff_0_D_0\.sky130_fd_sc_hd__mux2_1_0_X
*218 ltile_clb_mode__0\.ltile_fle_2\.ccff_tail
*219 ltile_clb_mode__0\.ltile_fle_2\.ltile_phy_fabric_0\.direct_interc_8_\.in
*220 ltile_clb_mode__0\.ltile_fle_2\.ltile_phy_fabric_0\.direct_interc_9_\.in
*221 ltile_clb_mode__0\.ltile_fle_2\.ltile_phy_fabric_0\.ltile_clb_fle_ff_0\.ff_D
*222 ltile_clb_mode__0\.ltile_fle_2\.ltile_phy_fabric_0\.ltile_frac_logic_0\.ccff_tail
*223 ltile_clb_mode__0\.ltile_fle_2\.ltile_phy_fabric_0\.ltile_frac_logic_0\.ltile_frac_lut4_0\.ccff_tail
*224 ltile_clb_mode__0\.ltile_fle_2\.ltile_phy_fabric_0\.ltile_frac_logic_0\.ltile_frac_lut4_0\.frac_lut4_0_\.frac_lut4_mux_0_\.in\[0\]
*225 ltile_clb_mode__0\.ltile_fle_2\.ltile_phy_fabric_0\.ltile_frac_logic_0\.ltile_frac_lut4_0\.frac_lut4_0_\.frac_lut4_mux_0_\.in\[10\]
*226 ltile_clb_mode__0\.ltile_fle_2\.ltile_phy_fabric_0\.ltile_frac_logic_0\.ltile_frac_lut4_0\.frac_lut4_0_\.frac_lut4_mux_0_\.in\[11\]
*227 ltile_clb_mode__0\.ltile_fle_2\.ltile_phy_fabric_0\.ltile_frac_logic_0\.ltile_frac_lut4_0\.frac_lut4_0_\.frac_lut4_mux_0_\.in\[12\]
*228 ltile_clb_mode__0\.ltile_fle_2\.ltile_phy_fabric_0\.ltile_frac_logic_0\.ltile_frac_lut4_0\.frac_lut4_0_\.frac_lut4_mux_0_\.in\[13\]
*229 ltile_clb_mode__0\.ltile_fle_2\.ltile_phy_fabric_0\.ltile_frac_logic_0\.ltile_frac_lut4_0\.frac_lut4_0_\.frac_lut4_mux_0_\.in\[14\]
*230 ltile_clb_mode__0\.ltile_fle_2\.ltile_phy_fabric_0\.ltile_frac_logic_0\.ltile_frac_lut4_0\.frac_lut4_0_\.frac_lut4_mux_0_\.in\[15\]
*231 ltile_clb_mode__0\.ltile_fle_2\.ltile_phy_fabric_0\.ltile_frac_logic_0\.ltile_frac_lut4_0\.frac_lut4_0_\.frac_lut4_mux_0_\.in\[1\]
*232 ltile_clb_mode__0\.ltile_fle_2\.ltile_phy_fabric_0\.ltile_frac_logic_0\.ltile_frac_lut4_0\.frac_lut4_0_\.frac_lut4_mux_0_\.in\[2\]
*233 ltile_clb_mode__0\.ltile_fle_2\.ltile_phy_fabric_0\.ltile_frac_logic_0\.ltile_frac_lut4_0\.frac_lut4_0_\.frac_lut4_mux_0_\.in\[3\]
*234 ltile_clb_mode__0\.ltile_fle_2\.ltile_phy_fabric_0\.ltile_frac_logic_0\.ltile_frac_lut4_0\.frac_lut4_0_\.frac_lut4_mux_0_\.in\[4\]
*235 ltile_clb_mode__0\.ltile_fle_2\.ltile_phy_fabric_0\.ltile_frac_logic_0\.ltile_frac_lut4_0\.frac_lut4_0_\.frac_lut4_mux_0_\.in\[5\]
*236 ltile_clb_mode__0\.ltile_fle_2\.ltile_phy_fabric_0\.ltile_frac_logic_0\.ltile_frac_lut4_0\.frac_lut4_0_\.frac_lut4_mux_0_\.in\[6\]
*237 ltile_clb_mode__0\.ltile_fle_2\.ltile_phy_fabric_0\.ltile_frac_logic_0\.ltile_frac_lut4_0\.frac_lut4_0_\.frac_lut4_mux_0_\.in\[7\]
*238 ltile_clb_mode__0\.ltile_fle_2\.ltile_phy_fabric_0\.ltile_frac_logic_0\.ltile_frac_lut4_0\.frac_lut4_0_\.frac_lut4_mux_0_\.in\[8\]
*239 ltile_clb_mode__0\.ltile_fle_2\.ltile_phy_fabric_0\.ltile_frac_logic_0\.ltile_frac_lut4_0\.frac_lut4_0_\.frac_lut4_mux_0_\.in\[9\]
*240 ltile_clb_mode__0\.ltile_fle_2\.ltile_phy_fabric_0\.ltile_frac_logic_0\.ltile_frac_lut4_0\.frac_lut4_0_\.frac_lut4_mux_0_\.lut3_out\[0\]
*241 ltile_clb_mode__0\.ltile_fle_2\.ltile_phy_fabric_0\.ltile_frac_logic_0\.ltile_frac_lut4_0\.frac_lut4_0_\.frac_lut4_mux_0_\.lut4_out
*242 ltile_clb_mode__0\.ltile_fle_2\.ltile_phy_fabric_0\.ltile_frac_logic_0\.ltile_frac_lut4_0\.frac_lut4_0_\.frac_lut4_mux_0_\.sky130_fd_sc_hd__buf_2_3_X
*243 ltile_clb_mode__0\.ltile_fle_2\.ltile_phy_fabric_0\.ltile_frac_logic_0\.ltile_frac_lut4_0\.frac_lut4_0_\.frac_lut4_mux_0_\.sky130_fd_sc_hd__buf_2_4_X
*244 ltile_clb_mode__0\.ltile_fle_2\.ltile_phy_fabric_0\.ltile_frac_logic_0\.ltile_frac_lut4_0\.frac_lut4_0_\.frac_lut4_mux_0_\.sky130_fd_sc_hd__buf_2_5_X
*245 ltile_clb_mode__0\.ltile_fle_2\.ltile_phy_fabric_0\.ltile_frac_logic_0\.ltile_frac_lut4_0\.frac_lut4_0_\.frac_lut4_mux_0_\.sky130_fd_sc_hd__buf_2_6_X
*246 ltile_clb_mode__0\.ltile_fle_2\.ltile_phy_fabric_0\.ltile_frac_logic_0\.ltile_frac_lut4_0\.frac_lut4_0_\.frac_lut4_mux_0_\.sky130_fd_sc_hd__mux2_1_0_X
*247 ltile_clb_mode__0\.ltile_fle_2\.ltile_phy_fabric_0\.ltile_frac_logic_0\.ltile_frac_lut4_0\.frac_lut4_0_\.frac_lut4_mux_0_\.sky130_fd_sc_hd__mux2_1_10_X
*248 ltile_clb_mode__0\.ltile_fle_2\.ltile_phy_fabric_0\.ltile_frac_logic_0\.ltile_frac_lut4_0\.frac_lut4_0_\.frac_lut4_mux_0_\.sky130_fd_sc_hd__mux2_1_11_X
*249 ltile_clb_mode__0\.ltile_fle_2\.ltile_phy_fabric_0\.ltile_frac_logic_0\.ltile_frac_lut4_0\.frac_lut4_0_\.frac_lut4_mux_0_\.sky130_fd_sc_hd__mux2_1_12_X
*250 ltile_clb_mode__0\.ltile_fle_2\.ltile_phy_fabric_0\.ltile_frac_logic_0\.ltile_frac_lut4_0\.frac_lut4_0_\.frac_lut4_mux_0_\.sky130_fd_sc_hd__mux2_1_13_X
*251 ltile_clb_mode__0\.ltile_fle_2\.ltile_phy_fabric_0\.ltile_frac_logic_0\.ltile_frac_lut4_0\.frac_lut4_0_\.frac_lut4_mux_0_\.sky130_fd_sc_hd__mux2_1_14_X
*252 ltile_clb_mode__0\.ltile_fle_2\.ltile_phy_fabric_0\.ltile_frac_logic_0\.ltile_frac_lut4_0\.frac_lut4_0_\.frac_lut4_mux_0_\.sky130_fd_sc_hd__mux2_1_1_X
*253 ltile_clb_mode__0\.ltile_fle_2\.ltile_phy_fabric_0\.ltile_frac_logic_0\.ltile_frac_lut4_0\.frac_lut4_0_\.frac_lut4_mux_0_\.sky130_fd_sc_hd__mux2_1_2_X
*254 ltile_clb_mode__0\.ltile_fle_2\.ltile_phy_fabric_0\.ltile_frac_logic_0\.ltile_frac_lut4_0\.frac_lut4_0_\.frac_lut4_mux_0_\.sky130_fd_sc_hd__mux2_1_3_X
*255 ltile_clb_mode__0\.ltile_fle_2\.ltile_phy_fabric_0\.ltile_frac_logic_0\.ltile_frac_lut4_0\.frac_lut4_0_\.frac_lut4_mux_0_\.sky130_fd_sc_hd__mux2_1_4_X
*256 ltile_clb_mode__0\.ltile_fle_2\.ltile_phy_fabric_0\.ltile_frac_logic_0\.ltile_frac_lut4_0\.frac_lut4_0_\.frac_lut4_mux_0_\.sky130_fd_sc_hd__mux2_1_5_X
*257 ltile_clb_mode__0\.ltile_fle_2\.ltile_phy_fabric_0\.ltile_frac_logic_0\.ltile_frac_lut4_0\.frac_lut4_0_\.frac_lut4_mux_0_\.sky130_fd_sc_hd__mux2_1_6_X
*258 ltile_clb_mode__0\.ltile_fle_2\.ltile_phy_fabric_0\.ltile_frac_logic_0\.ltile_frac_lut4_0\.frac_lut4_0_\.frac_lut4_mux_0_\.sky130_fd_sc_hd__mux2_1_7_X
*259 ltile_clb_mode__0\.ltile_fle_2\.ltile_phy_fabric_0\.ltile_frac_logic_0\.ltile_frac_lut4_0\.frac_lut4_0_\.frac_lut4_mux_0_\.sky130_fd_sc_hd__mux2_1_8_X
*260 ltile_clb_mode__0\.ltile_fle_2\.ltile_phy_fabric_0\.ltile_frac_logic_0\.ltile_frac_lut4_0\.frac_lut4_0_\.frac_lut4_mux_0_\.sky130_fd_sc_hd__mux2_1_9_X
*261 ltile_clb_mode__0\.ltile_fle_2\.ltile_phy_fabric_0\.ltile_frac_logic_0\.ltile_frac_lut4_0\.frac_lut4_0_\.sky130_fd_sc_hd__buf_2_0_X
*262 ltile_clb_mode__0\.ltile_fle_2\.ltile_phy_fabric_0\.ltile_frac_logic_0\.ltile_frac_lut4_0\.frac_lut4_0_\.sky130_fd_sc_hd__buf_2_1_X
*263 ltile_clb_mode__0\.ltile_fle_2\.ltile_phy_fabric_0\.ltile_frac_logic_0\.ltile_frac_lut4_0\.frac_lut4_0_\.sky130_fd_sc_hd__buf_2_2_X
*264 ltile_clb_mode__0\.ltile_fle_2\.ltile_phy_fabric_0\.ltile_frac_logic_0\.ltile_frac_lut4_0\.frac_lut4_0_\.sky130_fd_sc_hd__buf_2_3_X
*265 ltile_clb_mode__0\.ltile_fle_2\.ltile_phy_fabric_0\.ltile_frac_logic_0\.ltile_frac_lut4_0\.frac_lut4_0_\.sky130_fd_sc_hd__or2_1_0_X
*266 ltile_clb_mode__0\.ltile_fle_2\.ltile_phy_fabric_0\.ltile_frac_logic_0\.ltile_frac_lut4_0\.frac_lut4_sky130_fd_sc_hd__dfxtp_1_mem\.delay_ccff_head
*267 ltile_clb_mode__0\.ltile_fle_2\.ltile_phy_fabric_0\.ltile_frac_logic_0\.mem_frac_logic_out_0\.mem_out\[0\]
*268 ltile_clb_mode__0\.ltile_fle_2\.ltile_phy_fabric_0\.ltile_frac_logic_0\.mux_frac_logic_out_0\.out
*269 ltile_clb_mode__0\.ltile_fle_2\.ltile_phy_fabric_0\.ltile_frac_logic_0\.mux_frac_logic_out_0\.sky130_fd_sc_hd__mux2_1_0_X
*270 ltile_clb_mode__0\.ltile_fle_2\.ltile_phy_fabric_0\.mem_fabric_out_0\.ccff_tail
*271 ltile_clb_mode__0\.ltile_fle_2\.ltile_phy_fabric_0\.mem_fabric_out_0\.mem_out\[0\]
*272 ltile_clb_mode__0\.ltile_fle_2\.ltile_phy_fabric_0\.mem_fabric_out_1\.ccff_tail
*273 ltile_clb_mode__0\.ltile_fle_2\.ltile_phy_fabric_0\.mem_fabric_out_1\.mem_out\[0\]
*274 ltile_clb_mode__0\.ltile_fle_2\.ltile_phy_fabric_0\.mem_ff_0_D_0\.mem_out\[0\]
*275 ltile_clb_mode__0\.ltile_fle_2\.ltile_phy_fabric_0\.mux_fabric_out_0\.sky130_fd_sc_hd__mux2_1_0_X
*276 ltile_clb_mode__0\.ltile_fle_2\.ltile_phy_fabric_0\.mux_fabric_out_1\.sky130_fd_sc_hd__mux2_1_0_X
*277 ltile_clb_mode__0\.ltile_fle_2\.ltile_phy_fabric_0\.mux_ff_0_D_0\.sky130_fd_sc_hd__mux2_1_0_X
*278 ltile_clb_mode__0\.ltile_fle_3\.ccff_tail
*279 ltile_clb_mode__0\.ltile_fle_3\.ltile_phy_fabric_0\.direct_interc_8_\.in
*280 ltile_clb_mode__0\.ltile_fle_3\.ltile_phy_fabric_0\.direct_interc_9_\.in
*281 ltile_clb_mode__0\.ltile_fle_3\.ltile_phy_fabric_0\.ltile_clb_fle_ff_0\.ff_D
*282 ltile_clb_mode__0\.ltile_fle_3\.ltile_phy_fabric_0\.ltile_frac_logic_0\.ccff_tail
*283 ltile_clb_mode__0\.ltile_fle_3\.ltile_phy_fabric_0\.ltile_frac_logic_0\.ltile_frac_lut4_0\.ccff_tail
*284 ltile_clb_mode__0\.ltile_fle_3\.ltile_phy_fabric_0\.ltile_frac_logic_0\.ltile_frac_lut4_0\.frac_lut4_0_\.frac_lut4_mux_0_\.in\[0\]
*285 ltile_clb_mode__0\.ltile_fle_3\.ltile_phy_fabric_0\.ltile_frac_logic_0\.ltile_frac_lut4_0\.frac_lut4_0_\.frac_lut4_mux_0_\.in\[10\]
*286 ltile_clb_mode__0\.ltile_fle_3\.ltile_phy_fabric_0\.ltile_frac_logic_0\.ltile_frac_lut4_0\.frac_lut4_0_\.frac_lut4_mux_0_\.in\[11\]
*287 ltile_clb_mode__0\.ltile_fle_3\.ltile_phy_fabric_0\.ltile_frac_logic_0\.ltile_frac_lut4_0\.frac_lut4_0_\.frac_lut4_mux_0_\.in\[12\]
*288 ltile_clb_mode__0\.ltile_fle_3\.ltile_phy_fabric_0\.ltile_frac_logic_0\.ltile_frac_lut4_0\.frac_lut4_0_\.frac_lut4_mux_0_\.in\[13\]
*289 ltile_clb_mode__0\.ltile_fle_3\.ltile_phy_fabric_0\.ltile_frac_logic_0\.ltile_frac_lut4_0\.frac_lut4_0_\.frac_lut4_mux_0_\.in\[14\]
*290 ltile_clb_mode__0\.ltile_fle_3\.ltile_phy_fabric_0\.ltile_frac_logic_0\.ltile_frac_lut4_0\.frac_lut4_0_\.frac_lut4_mux_0_\.in\[15\]
*291 ltile_clb_mode__0\.ltile_fle_3\.ltile_phy_fabric_0\.ltile_frac_logic_0\.ltile_frac_lut4_0\.frac_lut4_0_\.frac_lut4_mux_0_\.in\[1\]
*292 ltile_clb_mode__0\.ltile_fle_3\.ltile_phy_fabric_0\.ltile_frac_logic_0\.ltile_frac_lut4_0\.frac_lut4_0_\.frac_lut4_mux_0_\.in\[2\]
*293 ltile_clb_mode__0\.ltile_fle_3\.ltile_phy_fabric_0\.ltile_frac_logic_0\.ltile_frac_lut4_0\.frac_lut4_0_\.frac_lut4_mux_0_\.in\[3\]
*294 ltile_clb_mode__0\.ltile_fle_3\.ltile_phy_fabric_0\.ltile_frac_logic_0\.ltile_frac_lut4_0\.frac_lut4_0_\.frac_lut4_mux_0_\.in\[4\]
*295 ltile_clb_mode__0\.ltile_fle_3\.ltile_phy_fabric_0\.ltile_frac_logic_0\.ltile_frac_lut4_0\.frac_lut4_0_\.frac_lut4_mux_0_\.in\[5\]
*296 ltile_clb_mode__0\.ltile_fle_3\.ltile_phy_fabric_0\.ltile_frac_logic_0\.ltile_frac_lut4_0\.frac_lut4_0_\.frac_lut4_mux_0_\.in\[6\]
*297 ltile_clb_mode__0\.ltile_fle_3\.ltile_phy_fabric_0\.ltile_frac_logic_0\.ltile_frac_lut4_0\.frac_lut4_0_\.frac_lut4_mux_0_\.in\[7\]
*298 ltile_clb_mode__0\.ltile_fle_3\.ltile_phy_fabric_0\.ltile_frac_logic_0\.ltile_frac_lut4_0\.frac_lut4_0_\.frac_lut4_mux_0_\.in\[8\]
*299 ltile_clb_mode__0\.ltile_fle_3\.ltile_phy_fabric_0\.ltile_frac_logic_0\.ltile_frac_lut4_0\.frac_lut4_0_\.frac_lut4_mux_0_\.in\[9\]
*300 ltile_clb_mode__0\.ltile_fle_3\.ltile_phy_fabric_0\.ltile_frac_logic_0\.ltile_frac_lut4_0\.frac_lut4_0_\.frac_lut4_mux_0_\.lut3_out\[0\]