*SPEF "ieee 1481-1999"
*DESIGN "sb_0__2_"
*DATE "11:11:11 Fri 11 11, 1111"
*VENDOR "OpenRCX"
*PROGRAM "Parallel Extraction"
*VERSION "1.0"
*DESIGN_FLOW "NAME_SCOPE LOCAL" "PIN_CAP NONE"
*DIVIDER /
*DELIMITER :
*BUS_DELIMITER []
*T_UNIT 1 NS
*C_UNIT 1 PF
*R_UNIT 1 OHM
*L_UNIT 1 HENRY

*NAME_MAP
*1 SC_IN_TOP
*2 SC_OUT_BOT
*5 bottom_left_grid_pin_1_
*6 ccff_head
*7 ccff_tail
*8 chanx_right_in[0]
*9 chanx_right_in[10]
*10 chanx_right_in[11]
*11 chanx_right_in[12]
*12 chanx_right_in[13]
*13 chanx_right_in[14]
*14 chanx_right_in[15]
*15 chanx_right_in[16]
*16 chanx_right_in[17]
*17 chanx_right_in[18]
*18 chanx_right_in[19]
*19 chanx_right_in[1]
*20 chanx_right_in[2]
*21 chanx_right_in[3]
*22 chanx_right_in[4]
*23 chanx_right_in[5]
*24 chanx_right_in[6]
*25 chanx_right_in[7]
*26 chanx_right_in[8]
*27 chanx_right_in[9]
*28 chanx_right_out[0]
*29 chanx_right_out[10]
*30 chanx_right_out[11]
*31 chanx_right_out[12]
*32 chanx_right_out[13]
*33 chanx_right_out[14]
*34 chanx_right_out[15]
*35 chanx_right_out[16]
*36 chanx_right_out[17]
*37 chanx_right_out[18]
*38 chanx_right_out[19]
*39 chanx_right_out[1]
*40 chanx_right_out[2]
*41 chanx_right_out[3]
*42 chanx_right_out[4]
*43 chanx_right_out[5]
*44 chanx_right_out[6]
*45 chanx_right_out[7]
*46 chanx_right_out[8]
*47 chanx_right_out[9]
*48 chany_bottom_in[0]
*49 chany_bottom_in[10]
*50 chany_bottom_in[11]
*51 chany_bottom_in[12]
*52 chany_bottom_in[13]
*53 chany_bottom_in[14]
*54 chany_bottom_in[15]
*55 chany_bottom_in[16]
*56 chany_bottom_in[17]
*57 chany_bottom_in[18]
*58 chany_bottom_in[19]
*59 chany_bottom_in[1]
*60 chany_bottom_in[2]
*61 chany_bottom_in[3]
*62 chany_bottom_in[4]
*63 chany_bottom_in[5]
*64 chany_bottom_in[6]
*65 chany_bottom_in[7]
*66 chany_bottom_in[8]
*67 chany_bottom_in[9]
*68 chany_bottom_out[0]
*69 chany_bottom_out[10]
*70 chany_bottom_out[11]
*71 chany_bottom_out[12]
*72 chany_bottom_out[13]
*73 chany_bottom_out[14]
*74 chany_bottom_out[15]
*75 chany_bottom_out[16]
*76 chany_bottom_out[17]
*77 chany_bottom_out[18]
*78 chany_bottom_out[19]
*79 chany_bottom_out[1]
*80 chany_bottom_out[2]
*81 chany_bottom_out[3]
*82 chany_bottom_out[4]
*83 chany_bottom_out[5]
*84 chany_bottom_out[6]
*85 chany_bottom_out[7]
*86 chany_bottom_out[8]
*87 chany_bottom_out[9]
*88 prog_clk_0_E_in
*89 right_bottom_grid_pin_34_
*90 right_bottom_grid_pin_35_
*91 right_bottom_grid_pin_36_
*92 right_bottom_grid_pin_37_
*93 right_bottom_grid_pin_38_
*94 right_bottom_grid_pin_39_
*95 right_bottom_grid_pin_40_
*96 right_bottom_grid_pin_41_
*97 right_top_grid_pin_1_
*98 mem_bottom_track_1\.ccff_head
*99 mem_bottom_track_1\.ccff_tail
*100 mem_bottom_track_1\.mem_out\[0\]
*101 mem_bottom_track_1\.prog_clk
*102 mem_bottom_track_25\.ccff_head
*103 mem_bottom_track_25\.mem_out\[0\]
*104 mem_bottom_track_5\.ccff_tail
*105 mem_bottom_track_5\.mem_out\[0\]
*106 mem_bottom_track_9\.mem_out\[0\]
*107 mem_right_track_0\.ccff_tail
*108 mem_right_track_0\.mem_out\[0\]
*109 mem_right_track_0\.mem_out\[1\]
*110 mem_right_track_10\.ccff_head
*111 mem_right_track_10\.ccff_tail
*112 mem_right_track_10\.mem_out\[0\]
*113 mem_right_track_12\.ccff_tail
*114 mem_right_track_12\.mem_out\[0\]
*115 mem_right_track_14\.ccff_tail
*116 mem_right_track_14\.mem_out\[0\]
*117 mem_right_track_16\.ccff_tail
*118 mem_right_track_16\.mem_out\[0\]
*119 mem_right_track_18\.ccff_tail
*120 mem_right_track_18\.mem_out\[0\]
*121 mem_right_track_2\.ccff_tail
*122 mem_right_track_2\.mem_out\[0\]
*123 mem_right_track_2\.mem_out\[1\]
*124 mem_right_track_20\.ccff_tail
*125 mem_right_track_20\.mem_out\[0\]
*126 mem_right_track_22\.ccff_tail
*127 mem_right_track_22\.mem_out\[0\]
*128 mem_right_track_24\.ccff_tail
*129 mem_right_track_24\.mem_out\[0\]
*130 mem_right_track_26\.ccff_tail
*131 mem_right_track_26\.mem_out\[0\]
*132 mem_right_track_28\.ccff_tail
*133 mem_right_track_28\.mem_out\[0\]
*134 mem_right_track_30\.ccff_tail
*135 mem_right_track_30\.mem_out\[0\]
*136 mem_right_track_32\.ccff_tail
*137 mem_right_track_32\.mem_out\[0\]
*138 mem_right_track_34\.ccff_tail
*139 mem_right_track_34\.mem_out\[0\]
*140 mem_right_track_36\.ccff_tail
*141 mem_right_track_36\.mem_out\[0\]
*142 mem_right_track_38\.mem_out\[0\]
*143 mem_right_track_4\.ccff_tail
*144 mem_right_track_4\.mem_out\[0\]
*145 mem_right_track_4\.mem_out\[1\]
*146 mem_right_track_6\.ccff_tail
*147 mem_right_track_6\.mem_out\[0\]
*148 mem_right_track_6\.mem_out\[1\]
*149 mem_right_track_8\.mem_out\[0\]
*150 mux_bottom_track_1\.out
*151 mux_bottom_track_1\.sky130_fd_sc_hd__mux2_1_0_X
*152 mux_bottom_track_1\.sky130_fd_sc_hd__mux2_1_1_X
*153 mux_bottom_track_25\.out
*154 mux_bottom_track_25\.sky130_fd_sc_hd__mux2_1_0_X
*155 mux_bottom_track_25\.sky130_fd_sc_hd__mux2_1_1_X
*156 mux_bottom_track_5\.out
*157 mux_bottom_track_5\.sky130_fd_sc_hd__mux2_1_0_X
*158 mux_bottom_track_5\.sky130_fd_sc_hd__mux2_1_1_X
*159 mux_bottom_track_9\.out
*160 mux_bottom_track_9\.sky130_fd_sc_hd__mux2_1_0_X
*161 mux_bottom_track_9\.sky130_fd_sc_hd__mux2_1_1_X
*162 mux_right_track_0\.out
*163 mux_right_track_0\.sky130_fd_sc_hd__mux2_1_0_X
*164 mux_right_track_0\.sky130_fd_sc_hd__mux2_1_1_X
*165 mux_right_track_0\.sky130_fd_sc_hd__mux2_1_2_X
*166 mux_right_track_0\.sky130_fd_sc_hd__mux2_1_3_X
*167 mux_right_track_0\.sky130_fd_sc_hd__mux2_1_4_X
*168 mux_right_track_0\.sky130_fd_sc_hd__mux2_1_5_X
*169 mux_right_track_10\.out
*170 mux_right_track_10\.sky130_fd_sc_hd__mux2_1_0_X
*171 mux_right_track_10\.sky130_fd_sc_hd__mux2_1_1_X
*172 mux_right_track_12\.out
*173 mux_right_track_12\.sky130_fd_sc_hd__mux2_1_0_X
*174 mux_right_track_12\.sky130_fd_sc_hd__mux2_1_1_X
*175 mux_right_track_14\.out
*176 mux_right_track_14\.sky130_fd_sc_hd__mux2_1_0_X
*177 mux_right_track_14\.sky130_fd_sc_hd__mux2_1_1_X
*178 mux_right_track_16\.out
*179 mux_right_track_16\.sky130_fd_sc_hd__mux2_1_0_X
*180 mux_right_track_16\.sky130_fd_sc_hd__mux2_1_1_X
*181 mux_right_track_18\.out
*182 mux_right_track_18\.sky130_fd_sc_hd__mux2_1_0_X
*183 mux_right_track_18\.sky130_fd_sc_hd__mux2_1_1_X
*184 mux_right_track_2\.out
*185 mux_right_track_2\.sky130_fd_sc_hd__mux2_1_0_X
*186 mux_right_track_2\.sky130_fd_sc_hd__mux2_1_1_X
*187 mux_right_track_2\.sky130_fd_sc_hd__mux2_1_2_X
*188 mux_right_track_2\.sky130_fd_sc_hd__mux2_1_3_X
*189 mux_right_track_2\.sky130_fd_sc_hd__mux2_1_4_X
*190 mux_right_track_20\.out
*191 mux_right_track_20\.sky130_fd_sc_hd__mux2_1_0_X
*192 mux_right_track_20\.sky130_fd_sc_hd__mux2_1_1_X
*193 mux_right_track_22\.out
*194 mux_right_track_22\.sky130_fd_sc_hd__mux2_1_0_X
*195 mux_right_track_22\.sky130_fd_sc_hd__mux2_1_1_X
*196 mux_right_track_24\.out
*197 mux_right_track_24\.sky130_fd_sc_hd__mux2_1_0_X
*198 mux_right_track_24\.sky130_fd_sc_hd__mux2_1_1_X
*199 mux_right_track_24\.sky130_fd_sc_hd__mux2_1_2_X
*200 mux_right_track_26\.out
*201 mux_right_track_26\.sky130_fd_sc_hd__mux2_1_0_X
*202 mux_right_track_26\.sky130_fd_sc_hd__mux2_1_1_X
*203 mux_right_track_28\.out
*204 mux_right_track_28\.sky130_fd_sc_hd__mux2_1_0_X
*205 mux_right_track_28\.sky130_fd_sc_hd__mux2_1_1_X
*206 mux_right_track_30\.out
*207 mux_right_track_30\.sky130_fd_sc_hd__mux2_1_0_X
*208 mux_right_track_30\.sky130_fd_sc_hd__mux2_1_1_X
*209 mux_right_track_32\.out
*210 mux_right_track_32\.sky130_fd_sc_hd__mux2_1_0_X
*211 mux_right_track_32\.sky130_fd_sc_hd__mux2_1_1_X
*212 mux_right_track_34\.out
*213 mux_right_track_34\.sky130_fd_sc_hd__mux2_1_0_X
*214 mux_right_track_34\.sky130_fd_sc_hd__mux2_1_1_X
*215 mux_right_track_36\.out
*216 mux_right_track_36\.sky130_fd_sc_hd__mux2_1_0_X
*217 mux_right_track_36\.sky130_fd_sc_hd__mux2_1_1_X
*218 mux_right_track_38\.out
*219 mux_right_track_38\.sky130_fd_sc_hd__mux2_1_0_X
*220 mux_right_track_38\.sky130_fd_sc_hd__mux2_1_1_X
*221 mux_right_track_4\.out
*222 mux_right_track_4\.sky130_fd_sc_hd__mux2_1_0_X
*223 mux_right_track_4\.sky130_fd_sc_hd__mux2_1_1_X
*224 mux_right_track_4\.sky130_fd_sc_hd__mux2_1_2_X
*225 mux_right_track_4\.sky130_fd_sc_hd__mux2_1_3_X
*226 mux_right_track_4\.sky130_fd_sc_hd__mux2_1_4_X
*227 mux_right_track_4\.sky130_fd_sc_hd__mux2_1_5_X
*228 mux_right_track_6\.out
*229 mux_right_track_6\.sky130_fd_sc_hd__mux2_1_0_X
*230 mux_right_track_6\.sky130_fd_sc_hd__mux2_1_1_X
*231 mux_right_track_6\.sky130_fd_sc_hd__mux2_1_2_X
*232 mux_right_track_6\.sky130_fd_sc_hd__mux2_1_3_X
*233 mux_right_track_6\.sky130_fd_sc_hd__mux2_1_4_X
*234 mux_right_track_8\.out
*235 mux_right_track_8\.sky130_fd_sc_hd__mux2_1_0_X
*236 mux_right_track_8\.sky130_fd_sc_hd__mux2_1_1_X
*237 mux_right_track_8\.sky130_fd_sc_hd__mux2_1_2_X
*238 net1
*239 net10
*240 net100
*241 net101
*242 net102
*243 net103
*244 net104
*245 net105
*246 net106
*247 net107
*248 net108
*249 net109
*250 net11
*251 net110
*252 net111
*253 net112
*254 net113
*255 net114
*256 net115
*257 net116
*258 net117
*259 net118
*260 net12
*261 net13
*262 net14
*263 net15
*264 net16
*265 net17
*266 net18
*267 net19
*268 net2
*269 net20
*270 net21
*271 net22
*272 net23
*273 net24
*274 net25
*275 net26
*276 net27
*277 net28
*278 net29
*279 net3
*280 net30
*281 net31
*282 net32
*283 net33
*284 net34
*285 net35
*286 net36
*287 net37
*288 net38
*289 net39
*290 net4
*291 net40
*292 net41
*293 net42
*294 net43
*295 net44
*296 net45
*297 net46
*298 net47
*299 net48
*300 net49
*301 net5
*302 net50
*303 net51
*304 net52
*305 net53
*306 net54
*307 net55
*308 net56
*309 net57
*310 net58
*311 net59
*312 net6
*313 net60
*314 net61
*315 net62
*316 net63
*317 net64
*318 net65
*319 net66
*320 net67
*321 net68
*322 net69
*323 net7
*324 net70
*325 net71
*326 net72
*327 net73
*328 net74
*329 net75
*330 net76
*331 net77
*332 net78
*333 net79
*334 net8
*335 net80
*336 net81
*337 net82
*338 net83
*339 net84
*340 net85
*341 net86
*342 net87
*343 net88
*344 net89
*345 net9
*346 net90
*347 net91
*348 net92
*349 net93
*350 net94
*351 net95
*352 net96
*353 net97
*354 net98
*355 net99
*356 ANTENNA_input10_A
*357 ANTENNA_input11_A
*358 ANTENNA_input12_A
*359 ANTENNA_input13_A
*360 ANTENNA_input14_A
*361 ANTENNA_input15_A
*362 ANTENNA_input16_A
*363 ANTENNA_input17_A
*364 ANTENNA_input18_A
*365 ANTENNA_input19_A
*366 ANTENNA_input1_A
*367 ANTENNA_input20_A
*368 ANTENNA_input21_A
*369 ANTENNA_input22_A
*370 ANTENNA_input23_A
*371 ANTENNA_input24_A
*372 ANTENNA_input25_A
*373 ANTENNA_input26_A
*374 ANTENNA_input27_A
*375 ANTENNA_input28_A
*376 ANTENNA_input29_A
*377 ANTENNA_input2_A
*378 ANTENNA_input30_A
*379 ANTENNA_input31_A
*380 ANTENNA_input32_A
*381 ANTENNA_input33_A
*382 ANTENNA_input34_A
*383 ANTENNA_input35_A
*384 ANTENNA_input36_A
*385 ANTENNA_input37_A
*386 ANTENNA_input38_A
*387 ANTENNA_input39_A
*388 ANTENNA_input3_A
*389 ANTENNA_input40_A
*390 ANTENNA_input41_A
*391 ANTENNA_input42_A
*392 ANTENNA_input43_A
*393 ANTENNA_input44_A
*394 ANTENNA_input45_A
*395 ANTENNA_input46_A
*396 ANTENNA_input47_A
*397 ANTENNA_input48_A
*398 ANTENNA_input49_A
*399 ANTENNA_input4_A
*400 ANTENNA_input50_A
*401 ANTENNA_input51_A
*402 ANTENNA_input52_A
*403 ANTENNA_input5_A
*404 ANTENNA_input6_A
*405 ANTENNA_input7_A
*406 ANTENNA_input8_A
*407 ANTENNA_input9_A
*408 ANTENNA_mem_bottom_track_1\.sky130_fd_sc_hd__dfxtp_1_0__CLK
*409 ANTENNA_mem_bottom_track_1\.sky130_fd_sc_hd__dfxtp_1_1__CLK
*410 ANTENNA_mem_bottom_track_25\.sky130_fd_sc_hd__dfxtp_1_0__CLK
*411 ANTENNA_mem_bottom_track_25\.sky130_fd_sc_hd__dfxtp_1_1__CLK
*412 ANTENNA_mem_bottom_track_5\.sky130_fd_sc_hd__dfxtp_1_0__CLK
*413 ANTENNA_mem_bottom_track_5\.sky130_fd_sc_hd__dfxtp_1_1__CLK
*414 ANTENNA_mem_bottom_track_9\.sky130_fd_sc_hd__dfxtp_1_0__CLK
*415 ANTENNA_mem_bottom_track_9\.sky130_fd_sc_hd__dfxtp_1_1__CLK
*416 ANTENNA_mem_right_track_0\.sky130_fd_sc_hd__dfxtp_1_0__CLK
*417 ANTENNA_mem_right_track_0\.sky130_fd_sc_hd__dfxtp_1_1__CLK
*418 ANTENNA_mem_right_track_0\.sky130_fd_sc_hd__dfxtp_1_2__CLK
*419 ANTENNA_mem_right_track_10\.sky130_fd_sc_hd__dfxtp_1_0__CLK
*420 ANTENNA_mem_right_track_10\.sky130_fd_sc_hd__dfxtp_1_1__CLK
*421 ANTENNA_mem_right_track_12\.sky130_fd_sc_hd__dfxtp_1_0__CLK
*422 ANTENNA_mem_right_track_12\.sky130_fd_sc_hd__dfxtp_1_1__CLK
*423 ANTENNA_mem_right_track_14\.sky130_fd_sc_hd__dfxtp_1_0__CLK
*424 ANTENNA_mem_right_track_14\.sky130_fd_sc_hd__dfxtp_1_1__CLK
*425 ANTENNA_mem_right_track_16\.sky130_fd_sc_hd__dfxtp_1_0__CLK
*426 ANTENNA_mem_right_track_16\.sky130_fd_sc_hd__dfxtp_1_1__CLK
*427 ANTENNA_mem_right_track_18\.sky130_fd_sc_hd__dfxtp_1_0__CLK
*428 ANTENNA_mem_right_track_18\.sky130_fd_sc_hd__dfxtp_1_1__CLK
*429 ANTENNA_mem_right_track_2\.sky130_fd_sc_hd__dfxtp_1_0__CLK
*430 ANTENNA_mem_right_track_2\.sky130_fd_sc_hd__dfxtp_1_1__CLK
*431 ANTENNA_mem_right_track_2\.sky130_fd_sc_hd__dfxtp_1_2__CLK
*432 ANTENNA_mem_right_track_20\.sky130_fd_sc_hd__dfxtp_1_0__CLK
*433 ANTENNA_mem_right_track_20\.sky130_fd_sc_hd__dfxtp_1_1__CLK
*434 ANTENNA_mem_right_track_22\.sky130_fd_sc_hd__dfxtp_1_0__CLK
*435 ANTENNA_mem_right_track_22\.sky130_fd_sc_hd__dfxtp_1_1__CLK
*436 ANTENNA_mem_right_track_24\.sky130_fd_sc_hd__dfxtp_1_0__CLK
*437 ANTENNA_mem_right_track_24\.sky130_fd_sc_hd__dfxtp_1_1__CLK
*438 ANTENNA_mem_right_track_26\.sky130_fd_sc_hd__dfxtp_1_0__CLK
*439 ANTENNA_mem_right_track_26\.sky130_fd_sc_hd__dfxtp_1_1__CLK
*440 ANTENNA_mem_right_track_28\.sky130_fd_sc_hd__dfxtp_1_0__CLK
*441 ANTENNA_mem_right_track_28\.sky130_fd_sc_hd__dfxtp_1_1__CLK
*442 ANTENNA_mem_right_track_30\.sky130_fd_sc_hd__dfxtp_1_0__CLK
*443 ANTENNA_mem_right_track_30\.sky130_fd_sc_hd__dfxtp_1_1__CLK
*444 ANTENNA_mem_right_track_32\.sky130_fd_sc_hd__dfxtp_1_0__CLK
*445 ANTENNA_mem_right_track_32\.sky130_fd_sc_hd__dfxtp_1_1__CLK
*446 ANTENNA_mem_right_track_34\.sky130_fd_sc_hd__dfxtp_1_0__CLK
*447 ANTENNA_mem_right_track_34\.sky130_fd_sc_hd__dfxtp_1_1__CLK
*448 ANTENNA_mem_right_track_36\.sky130_fd_sc_hd__dfxtp_1_0__CLK
*449 ANTENNA_mem_right_track_36\.sky130_fd_sc_hd__dfxtp_1_1__CLK
*450 ANTENNA_mem_right_track_38\.sky130_fd_sc_hd__dfxtp_1_0__CLK
*451 ANTENNA_mem_right_track_38\.sky130_fd_sc_hd__dfxtp_1_1__CLK
*452 ANTENNA_mem_right_track_4\.sky130_fd_sc_hd__dfxtp_1_0__CLK
*453 ANTENNA_mem_right_track_4\.sky130_fd_sc_hd__dfxtp_1_1__CLK
*454 ANTENNA_mem_right_track_4\.sky130_fd_sc_hd__dfxtp_1_2__CLK
*455 ANTENNA_mem_right_track_6\.sky130_fd_sc_hd__dfxtp_1_0__CLK
*456 ANTENNA_mem_right_track_6\.sky130_fd_sc_hd__dfxtp_1_1__CLK
*457 ANTENNA_mem_right_track_6\.sky130_fd_sc_hd__dfxtp_1_2__CLK
*458 ANTENNA_mem_right_track_8\.sky130_fd_sc_hd__dfxtp_1_0__CLK
*459 ANTENNA_mem_right_track_8\.sky130_fd_sc_hd__dfxtp_1_1__CLK
*460 ANTENNA_mux_bottom_track_1\.mux_l1_in_0__A0
*461 ANTENNA_mux_bottom_track_25\.mux_l1_in_0__A0
*462 ANTENNA_mux_bottom_track_25\.mux_l2_in_0__S
*463 ANTENNA_mux_bottom_track_5\.mux_l1_in_0__A0
*464 ANTENNA_mux_bottom_track_9\.mux_l1_in_0__A0
*465 ANTENNA_mux_right_track_0\.mux_l1_in_1__A0
*466 ANTENNA_mux_right_track_20\.mux_l1_in_0__A1
*467 ANTENNA_mux_right_track_22\.mux_l1_in_0__A0
*468 ANTENNA_mux_right_track_24\.mux_l1_in_1__A1
*469 ANTENNA_mux_right_track_28\.mux_l1_in_0__A0
*470 ANTENNA_mux_right_track_32\.mux_l1_in_0__A0
*471 ANTENNA_mux_right_track_34\.mux_l1_in_0__A0
*472 ANTENNA_mux_right_track_36\.mux_l1_in_0__A0
*473 ANTENNA_mux_right_track_36\.mux_l1_in_0__A1
*474 ANTENNA_mux_right_track_4\.mux_l1_in_1__A0
*475 ANTENNA_output54_A
*476 ANTENNA_prog_clk_0_FTB00_A
*477 FILLER_0_100
*478 FILLER_0_105
*479 FILLER_0_110
*480 FILLER_0_113
*481 FILLER_0_118
*482 FILLER_0_124
*483 FILLER_0_130
*484 FILLER_0_136
*485 FILLER_0_145
*486 FILLER_0_15
*487 FILLER_0_151
*488 FILLER_0_157
*489 FILLER_0_163
*490 FILLER_0_167
*491 FILLER_0_173
*492 FILLER_0_179
*493 FILLER_0_185
*494 FILLER_0_191
*495 FILLER_0_195
*496 FILLER_0_197
*497 FILLER_0_209
*498 FILLER_0_21
*499 FILLER_0_221
*500 FILLER_0_26
*501 FILLER_0_29
*502 FILLER_0_3
*503 FILLER_0_34
*504 FILLER_0_39
*505 FILLER_0_44
*506 FILLER_0_49
*507 FILLER_0_54
*508 FILLER_0_57
*509 FILLER_0_62
*510 FILLER_0_67
*511 FILLER_0_72
*512 FILLER_0_77
*513 FILLER_0_82
*514 FILLER_0_85
*515 FILLER_0_9
*516 FILLER_0_90
*517 FILLER_0_95
*518 FILLER_10_109
*519 FILLER_10_121
*520 FILLER_10_133
*521 FILLER_10_139
*522 FILLER_10_141
*523 FILLER_10_15
*524 FILLER_10_153
*525 FILLER_10_165
*526 FILLER_10_171
*527 FILLER_10_174
*528 FILLER_10_178
*529 FILLER_10_189
*530 FILLER_10_194
*531 FILLER_10_197
*532 FILLER_10_207
*533 FILLER_10_218
*534 FILLER_10_222
*535 FILLER_10_27
*536 FILLER_10_29
*537 FILLER_10_3
*538 FILLER_10_41
*539 FILLER_10_53
*540 FILLER_10_65
*541 FILLER_10_77
*542 FILLER_10_83
*543 FILLER_10_85
*544 FILLER_10_97
*545 FILLER_11_105
*546 FILLER_11_111
*547 FILLER_11_113
*548 FILLER_11_125
*549 FILLER_11_137
*550 FILLER_11_149
*551 FILLER_11_15
*552 FILLER_11_161
*553 FILLER_11_166
*554 FILLER_11_172
*555 FILLER_11_176
*556 FILLER_11_181
*557 FILLER_11_192
*558 FILLER_11_196
*559 FILLER_11_200
*560 FILLER_11_211
*561 FILLER_11_216
*562 FILLER_11_221
*563 FILLER_11_27
*564 FILLER_11_3
*565 FILLER_11_39
*566 FILLER_11_51
*567 FILLER_11_55
*568 FILLER_11_57
*569 FILLER_11_69
*570 FILLER_11_81
*571 FILLER_11_93
*572 FILLER_12_109
*573 FILLER_12_121
*574 FILLER_12_133
*575 FILLER_12_139
*576 FILLER_12_141
*577 FILLER_12_15
*578 FILLER_12_158
*579 FILLER_12_162
*580 FILLER_12_173
*581 FILLER_12_184
*582 FILLER_12_189
*583 FILLER_12_194
*584 FILLER_12_199
*585 FILLER_12_204
*586 FILLER_12_215
*587 FILLER_12_220
*588 FILLER_12_27
*589 FILLER_12_29
*590 FILLER_12_3
*591 FILLER_12_41
*592 FILLER_12_53
*593 FILLER_12_65
*594 FILLER_12_77
*595 FILLER_12_83
*596 FILLER_12_85
*597 FILLER_12_97
*598 FILLER_13_105
*599 FILLER_13_111
*600 FILLER_13_113
*601 FILLER_13_119
*602 FILLER_13_129
*603 FILLER_13_141
*604 FILLER_13_15
*605 FILLER_13_158
*606 FILLER_13_166
*607 FILLER_13_169
*608 FILLER_13_175
*609 FILLER_13_179
*610 FILLER_13_184
*611 FILLER_13_195
*612 FILLER_13_199
*613 FILLER_13_203
*614 FILLER_13_216
*615 FILLER_13_221
*616 FILLER_13_27
*617 FILLER_13_3
*618 FILLER_13_39
*619 FILLER_13_51
*620 FILLER_13_55
*621 FILLER_13_57
*622 FILLER_13_69
*623 FILLER_13_81
*624 FILLER_13_93
*625 FILLER_14_109
*626 FILLER_14_121
*627 FILLER_14_133
*628 FILLER_14_139
*629 FILLER_14_141
*630 FILLER_14_145
*631 FILLER_14_149
*632 FILLER_14_15
*633 FILLER_14_160
*634 FILLER_14_164
*635 FILLER_14_174
*636 FILLER_14_181
*637 FILLER_14_192
*638 FILLER_14_197
*639 FILLER_14_202
*640 FILLER_14_207
*641 FILLER_14_218
*642 FILLER_14_222
*643 FILLER_14_27
*644 FILLER_14_29
*645 FILLER_14_3
*646 FILLER_14_41
*647 FILLER_14_53
*648 FILLER_14_65
*649 FILLER_14_77
*650 FILLER_14_83
*651 FILLER_14_85
*652 FILLER_14_97
*653 FILLER_15_105
*654 FILLER_15_111
*655 FILLER_15_113
*656 FILLER_15_125
*657 FILLER_15_137
*658 FILLER_15_15
*659 FILLER_15_158
*660 FILLER_15_166
*661 FILLER_15_169
*662 FILLER_15_181
*663 FILLER_15_186
*664 FILLER_15_191
*665 FILLER_15_196
*666 FILLER_15_202
*667 FILLER_15_207
*668 FILLER_15_212
*669 FILLER_15_217
*670 FILLER_15_221
*671 FILLER_15_27
*672 FILLER_15_3
*673 FILLER_15_39
*674 FILLER_15_51
*675 FILLER_15_55
*676 FILLER_15_57
*677 FILLER_15_69
*678 FILLER_15_81
*679 FILLER_15_93
*680 FILLER_16_109
*681 FILLER_16_121
*682 FILLER_16_133
*683 FILLER_16_139
*684 FILLER_16_141
*685 FILLER_16_15
*686 FILLER_16_151
*687 FILLER_16_157
*688 FILLER_16_163
*689 FILLER_16_167
*690 FILLER_16_172
*691 FILLER_16_177
*692 FILLER_16_182
*693 FILLER_16_187
*694 FILLER_16_194
*695 FILLER_16_197
*696 FILLER_16_201
*697 FILLER_16_206
*698 FILLER_16_211
*699 FILLER_16_216
*700 FILLER_16_221
*701 FILLER_16_27
*702 FILLER_16_29
*703 FILLER_16_3
*704 FILLER_16_41
*705 FILLER_16_53
*706 FILLER_16_65
*707 FILLER_16_77
*708 FILLER_16_83
*709 FILLER_16_85
*710 FILLER_16_97
*711 FILLER_17_105
*712 FILLER_17_11
*713 FILLER_17_111
*714 FILLER_17_113
*715 FILLER_17_116
*716 FILLER_17_127
*717 FILLER_17_139
*718 FILLER_17_145
*719 FILLER_17_155
*720 FILLER_17_160
*721 FILLER_17_165
*722 FILLER_17_172
*723 FILLER_17_184
*724 FILLER_17_195
*725 FILLER_17_206
*726 FILLER_17_211
*727 FILLER_17_216
*728 FILLER_17_221
*729 FILLER_17_23
*730 FILLER_17_35
*731 FILLER_17_47
*732 FILLER_17_55
*733 FILLER_17_57
*734 FILLER_17_69
*735 FILLER_17_7
*736 FILLER_17_81
*737 FILLER_17_93
*738 FILLER_18_103
*739 FILLER_18_108
*740 FILLER_18_116
*741 FILLER_18_127
*742 FILLER_18_138
*743 FILLER_18_15
*744 FILLER_18_150
*745 FILLER_18_163
*746 FILLER_18_174
*747 FILLER_18_185
*748 FILLER_18_190
*749 FILLER_18_194
*750 FILLER_18_206
*751 FILLER_18_210
*752 FILLER_18_215
*753 FILLER_18_221
*754 FILLER_18_27
*755 FILLER_18_29
*756 FILLER_18_3
*757 FILLER_18_41
*758 FILLER_18_53
*759 FILLER_18_65
*760 FILLER_18_77
*761 FILLER_18_83
*762 FILLER_18_85
*763 FILLER_18_93
*764 FILLER_19_105
*765 FILLER_19_111
*766 FILLER_19_113
*767 FILLER_19_125
*768 FILLER_19_129
*769 FILLER_19_141
*770 FILLER_19_147
*771 FILLER_19_15
*772 FILLER_19_157
*773 FILLER_19_162
*774 FILLER_19_171
*775 FILLER_19_182
*776 FILLER_19_187
*777 FILLER_19_200
*778 FILLER_19_205
*779 FILLER_19_210
*780 FILLER_19_215
*781 FILLER_19_221
*782 FILLER_19_27
*783 FILLER_19_3
*784 FILLER_19_39
*785 FILLER_19_51
*786 FILLER_19_55
*787 FILLER_19_57
*788 FILLER_19_69
*789 FILLER_19_81
*790 FILLER_19_93
*791 FILLER_1_102
*792 FILLER_1_107
*793 FILLER_1_11
*794 FILLER_1_111
*795 FILLER_1_115
*796 FILLER_1_125
*797 FILLER_1_129
*798 FILLER_1_134
*799 FILLER_1_139
*800 FILLER_1_14
*801 FILLER_1_144
*802 FILLER_1_149
*803 FILLER_1_154
*804 FILLER_1_160
*805 FILLER_1_165
*806 FILLER_1_169
*807 FILLER_1_175
*808 FILLER_1_179
*809 FILLER_1_184
*810 FILLER_1_19
*811 FILLER_1_190
*812 FILLER_1_196
*813 FILLER_1_202
*814 FILLER_1_208
*815 FILLER_1_221
*816 FILLER_1_25
*817 FILLER_1_29
*818 FILLER_1_3
*819 FILLER_1_34
*820 FILLER_1_38
*821 FILLER_1_41
*822 FILLER_1_46
*823 FILLER_1_51
*824 FILLER_1_55
*825 FILLER_1_59
*826 FILLER_1_64
*827 FILLER_1_68
*828 FILLER_1_72
*829 FILLER_1_76
*830 FILLER_1_80
*831 FILLER_1_84
*832 FILLER_1_89
*833 FILLER_1_93
*834 FILLER_1_97
*835 FILLER_20_125
*836 FILLER_20_129
*837 FILLER_20_137
*838 FILLER_20_141
*839 FILLER_20_15
*840 FILLER_20_153
*841 FILLER_20_166
*842 FILLER_20_171
*843 FILLER_20_189
*844 FILLER_20_193
*845 FILLER_20_197
*846 FILLER_20_203
*847 FILLER_20_221
*848 FILLER_20_27
*849 FILLER_20_29
*850 FILLER_20_3
*851 FILLER_20_41
*852 FILLER_20_53
*853 FILLER_20_65
*854 FILLER_20_77
*855 FILLER_20_83
*856 FILLER_20_85
*857 FILLER_20_97
*858 FILLER_21_111
*859 FILLER_21_113
*860 FILLER_21_116
*861 FILLER_21_134
*862 FILLER_21_138
*863 FILLER_21_15
*864 FILLER_21_150
*865 FILLER_21_165
*866 FILLER_21_169
*867 FILLER_21_187
*868 FILLER_21_205
*869 FILLER_21_209
*870 FILLER_21_215
*871 FILLER_21_221
*872 FILLER_21_27
*873 FILLER_21_3
*874 FILLER_21_39
*875 FILLER_21_51
*876 FILLER_21_55
*877 FILLER_21_57
*878 FILLER_21_69
*879 FILLER_21_73
*880 FILLER_21_83
*881 FILLER_21_87
*882 FILLER_21_99
*883 FILLER_22_103
*884 FILLER_22_120
*885 FILLER_22_138
*886 FILLER_22_143
*887 FILLER_22_15
*888 FILLER_22_161
*889 FILLER_22_179
*890 FILLER_22_183
*891 FILLER_22_189
*892 FILLER_22_194
*893 FILLER_22_197
*894 FILLER_22_203
*895 FILLER_22_221
*896 FILLER_22_27
*897 FILLER_22_29
*898 FILLER_22_3
*899 FILLER_22_41
*900 FILLER_22_53
*901 FILLER_22_65
*902 FILLER_22_77
*903 FILLER_22_83
*904 FILLER_22_85
*905 FILLER_22_97
*906 FILLER_23_105
*907 FILLER_23_111
*908 FILLER_23_113
*909 FILLER_23_133
*910 FILLER_23_137
*911 FILLER_23_145
*912 FILLER_23_15
*913 FILLER_23_162
*914 FILLER_23_166
*915 FILLER_23_185
*916 FILLER_23_203
*917 FILLER_23_221
*918 FILLER_23_27
*919 FILLER_23_3
*920 FILLER_23_39
*921 FILLER_23_51
*922 FILLER_23_55
*923 FILLER_23_57
*924 FILLER_23_69
*925 FILLER_23_81
*926 FILLER_23_93
*927 FILLER_24_105
*928 FILLER_24_124
*929 FILLER_24_128
*930 FILLER_24_141
*931 FILLER_24_15
*932 FILLER_24_161
*933 FILLER_24_165
*934 FILLER_24_169
*935 FILLER_24_175
*936 FILLER_24_179
*937 FILLER_24_183
*938 FILLER_24_187
*939 FILLER_24_191
*940 FILLER_24_194
*941 FILLER_24_197
*942 FILLER_24_203
*943 FILLER_24_221
*944 FILLER_24_27
*945 FILLER_24_29
*946 FILLER_24_3
*947 FILLER_24_41
*948 FILLER_24_53
*949 FILLER_24_65
*950 FILLER_24_77
*951 FILLER_24_83
*952 FILLER_24_85
*953 FILLER_24_97
*954 FILLER_25_105
*955 FILLER_25_111
*956 FILLER_25_129
*957 FILLER_25_133
*958 FILLER_25_138
*959 FILLER_25_15
*960 FILLER_25_150
*961 FILLER_25_158
*962 FILLER_25_161
*963 FILLER_25_167
*964 FILLER_25_185
*965 FILLER_25_189
*966 FILLER_25_193
*967 FILLER_25_196
*968 FILLER_25_202
*969 FILLER_25_220
*970 FILLER_25_27
*971 FILLER_25_3
*972 FILLER_25_39
*973 FILLER_25_51
*974 FILLER_25_55
*975 FILLER_25_57
*976 FILLER_25_69
*977 FILLER_25_81
*978 FILLER_25_93
*979 FILLER_26_118
*980 FILLER_26_136
*981 FILLER_26_141
*982 FILLER_26_15
*983 FILLER_26_159
*984 FILLER_26_177
*985 FILLER_26_181
*986 FILLER_26_185
*987 FILLER_26_189
*988 FILLER_26_194
*989 FILLER_26_213
*990 FILLER_26_221
*991 FILLER_26_27
*992 FILLER_26_29
*993 FILLER_26_3
*994 FILLER_26_41
*995 FILLER_26_53
*996 FILLER_26_65
*997 FILLER_26_77
*998 FILLER_26_82
*999 FILLER_26_94
*1000 FILLER_26_98
*1001 FILLER_27_105
*1002 FILLER_27_111
*1003 FILLER_27_113
*1004 FILLER_27_117
*1005 FILLER_27_135
*1006 FILLER_27_139
*1007 FILLER_27_147
*1008 FILLER_27_15
*1009 FILLER_27_166
*1010 FILLER_27_171
*1011 FILLER_27_191
*1012 FILLER_27_197
*1013 FILLER_27_215
*1014 FILLER_27_221
*1015 FILLER_27_27
*1016 FILLER_27_3
*1017 FILLER_27_39
*1018 FILLER_27_51
*1019 FILLER_27_55
*1020 FILLER_27_57
*1021 FILLER_27_69
*1022 FILLER_27_81
*1023 FILLER_27_93
*1024 FILLER_28_109
*1025 FILLER_28_115
*1026 FILLER_28_132
*1027 FILLER_28_136
*1028 FILLER_28_141
*1029 FILLER_28_149
*1030 FILLER_28_15
*1031 FILLER_28_153
*1032 FILLER_28_157
*1033 FILLER_28_161
*1034 FILLER_28_165
*1035 FILLER_28_183
*1036 FILLER_28_187
*1037 FILLER_28_194
*1038 FILLER_28_213
*1039 FILLER_28_221
*1040 FILLER_28_27
*1041 FILLER_28_29
*1042 FILLER_28_3
*1043 FILLER_28_41
*1044 FILLER_28_53
*1045 FILLER_28_65
*1046 FILLER_28_77
*1047 FILLER_28_83
*1048 FILLER_28_85
*1049 FILLER_28_97
*1050 FILLER_29_105
*1051 FILLER_29_111
*1052 FILLER_29_115
*1053 FILLER_29_135
*1054 FILLER_29_139
*1055 FILLER_29_145
*1056 FILLER_29_148
*1057 FILLER_29_15
*1058 FILLER_29_166
*1059 FILLER_29_169
*1060 FILLER_29_187
*1061 FILLER_29_191
*1062 FILLER_29_197
*1063 FILLER_29_203
*1064 FILLER_29_221
*1065 FILLER_29_27
*1066 FILLER_29_3
*1067 FILLER_29_39
*1068 FILLER_29_51
*1069 FILLER_29_55
*1070 FILLER_29_57
*1071 FILLER_29_69
*1072 FILLER_29_81
*1073 FILLER_29_93
*1074 FILLER_2_109
*1075 FILLER_2_121
*1076 FILLER_2_129
*1077 FILLER_2_133
*1078 FILLER_2_138
*1079 FILLER_2_141
*1080 FILLER_2_147
*1081 FILLER_2_15
*1082 FILLER_2_152
*1083 FILLER_2_157
*1084 FILLER_2_161
*1085 FILLER_2_166
*1086 FILLER_2_171
*1087 FILLER_2_177
*1088 FILLER_2_188
*1089 FILLER_2_194
*1090 FILLER_2_197
*1091 FILLER_2_209
*1092 FILLER_2_221
*1093 FILLER_2_23
*1094 FILLER_2_27
*1095 FILLER_2_29
*1096 FILLER_2_3
*1097 FILLER_2_33
*1098 FILLER_2_36
*1099 FILLER_2_48
*1100 FILLER_2_60
*1101 FILLER_2_72
*1102 FILLER_2_85
*1103 FILLER_2_97
*1104 FILLER_30_111
*1105 FILLER_30_129
*1106 FILLER_30_133
*1107 FILLER_30_139
*1108 FILLER_30_141
*1109 FILLER_30_15
*1110 FILLER_30_159
*1111 FILLER_30_177
*1112 FILLER_30_181
*1113 FILLER_30_185
*1114 FILLER_30_189
*1115 FILLER_30_194
*1116 FILLER_30_213
*1117 FILLER_30_221
*1118 FILLER_30_27
*1119 FILLER_30_29
*1120 FILLER_30_3
*1121 FILLER_30_41
*1122 FILLER_30_53
*1123 FILLER_30_65
*1124 FILLER_30_80
*1125 FILLER_30_85
*1126 FILLER_30_92
*1127 FILLER_31_110
*1128 FILLER_31_115
*1129 FILLER_31_137
*1130 FILLER_31_141
*1131 FILLER_31_145
*1132 FILLER_31_148
*1133 FILLER_31_15
*1134 FILLER_31_166
*1135 FILLER_31_171
*1136 FILLER_31_191
*1137 FILLER_31_209
*1138 FILLER_31_215
*1139 FILLER_31_221
*1140 FILLER_31_27
*1141 FILLER_31_3
*1142 FILLER_31_39
*1143 FILLER_31_51
*1144 FILLER_31_55
*1145 FILLER_31_57
*1146 FILLER_31_66
*1147 FILLER_31_77
*1148 FILLER_31_88
*1149 FILLER_32_104
*1150 FILLER_32_110
*1151 FILLER_32_127
*1152 FILLER_32_131
*1153 FILLER_32_136
*1154 FILLER_32_141
*1155 FILLER_32_147
*1156 FILLER_32_15
*1157 FILLER_32_151
*1158 FILLER_32_156
*1159 FILLER_32_160
*1160 FILLER_32_163
*1161 FILLER_32_168
*1162 FILLER_32_173
*1163 FILLER_32_193
*1164 FILLER_32_197
*1165 FILLER_32_203
*1166 FILLER_32_221
*1167 FILLER_32_27
*1168 FILLER_32_29
*1169 FILLER_32_3
*1170 FILLER_32_41
*1171 FILLER_32_53
*1172 FILLER_32_65
*1173 FILLER_32_71
*1174 FILLER_32_82
*1175 FILLER_32_94
*1176 FILLER_32_99
*1177 FILLER_33_106
*1178 FILLER_33_129
*1179 FILLER_33_133
*1180 FILLER_33_139
*1181 FILLER_33_141
*1182 FILLER_33_149
*1183 FILLER_33_15
*1184 FILLER_33_153
*1185 FILLER_33_157
*1186 FILLER_33_161
*1187 FILLER_33_166
*1188 FILLER_33_169
*1189 FILLER_33_176
*1190 FILLER_33_182
*1191 FILLER_33_188
*1192 FILLER_33_194
*1193 FILLER_33_207
*1194 FILLER_33_221
*1195 FILLER_33_27
*1196 FILLER_33_29
*1197 FILLER_33_3
*1198 FILLER_33_41
*1199 FILLER_33_49
*1200 FILLER_33_54
*1201 FILLER_33_59
*1202 FILLER_33_71
*1203 FILLER_33_77
*1204 FILLER_33_82
*1205 FILLER_33_85
*1206 FILLER_33_89
*1207 FILLER_33_94
*1208 FILLER_3_105
*1209 FILLER_3_111
*1210 FILLER_3_113
*1211 FILLER_3_125
*1212 FILLER_3_137
*1213 FILLER_3_141
*1214 FILLER_3_146
*1215 FILLER_3_15
*1216 FILLER_3_151
*1217 FILLER_3_156
*1218 FILLER_3_161
*1219 FILLER_3_166
*1220 FILLER_3_172
*1221 FILLER_3_177
*1222 FILLER_3_181
*1223 FILLER_3_191
*1224 FILLER_3_203
*1225 FILLER_3_209
*1226 FILLER_3_221
*1227 FILLER_3_27
*1228 FILLER_3_3
*1229 FILLER_3_39
*1230 FILLER_3_51
*1231 FILLER_3_55
*1232 FILLER_3_57
*1233 FILLER_3_69
*1234 FILLER_3_81
*1235 FILLER_3_93
*1236 FILLER_4_109
*1237 FILLER_4_121
*1238 FILLER_4_133
*1239 FILLER_4_139
*1240 FILLER_4_141
*1241 FILLER_4_144
*1242 FILLER_4_148
*1243 FILLER_4_15
*1244 FILLER_4_154
*1245 FILLER_4_159
*1246 FILLER_4_164
*1247 FILLER_4_170
*1248 FILLER_4_175
*1249 FILLER_4_180
*1250 FILLER_4_184
*1251 FILLER_4_194
*1252 FILLER_4_206
*1253 FILLER_4_217
*1254 FILLER_4_221
*1255 FILLER_4_27
*1256 FILLER_4_29
*1257 FILLER_4_3
*1258 FILLER_4_41
*1259 FILLER_4_53
*1260 FILLER_4_65
*1261 FILLER_4_70
*1262 FILLER_4_82
*1263 FILLER_4_85
*1264 FILLER_4_97
*1265 FILLER_5_105
*1266 FILLER_5_111
*1267 FILLER_5_113
*1268 FILLER_5_125
*1269 FILLER_5_137
*1270 FILLER_5_149
*1271 FILLER_5_15
*1272 FILLER_5_155