*SPEF "ieee 1481-1999"
*DESIGN "sb_0__0_"
*DATE "11:11:11 Fri 11 11, 1111"
*VENDOR "OpenRCX"
*PROGRAM "Parallel Extraction"
*VERSION "1.0"
*DESIGN_FLOW "NAME_SCOPE LOCAL" "PIN_CAP NONE"
*DIVIDER /
*DELIMITER :
*BUS_DELIMITER []
*T_UNIT 1 NS
*C_UNIT 1 PF
*R_UNIT 1 OHM
*L_UNIT 1 HENRY

*NAME_MAP
*3 ccff_head
*4 ccff_tail
*5 chanx_right_in[0]
*6 chanx_right_in[10]
*7 chanx_right_in[11]
*8 chanx_right_in[12]
*9 chanx_right_in[13]
*10 chanx_right_in[14]
*11 chanx_right_in[15]
*12 chanx_right_in[16]
*13 chanx_right_in[17]
*14 chanx_right_in[18]
*15 chanx_right_in[19]
*16 chanx_right_in[1]
*17 chanx_right_in[2]
*18 chanx_right_in[3]
*19 chanx_right_in[4]
*20 chanx_right_in[5]
*21 chanx_right_in[6]
*22 chanx_right_in[7]
*23 chanx_right_in[8]
*24 chanx_right_in[9]
*25 chanx_right_out[0]
*26 chanx_right_out[10]
*27 chanx_right_out[11]
*28 chanx_right_out[12]
*29 chanx_right_out[13]
*30 chanx_right_out[14]
*31 chanx_right_out[15]
*32 chanx_right_out[16]
*33 chanx_right_out[17]
*34 chanx_right_out[18]
*35 chanx_right_out[19]
*36 chanx_right_out[1]
*37 chanx_right_out[2]
*38 chanx_right_out[3]
*39 chanx_right_out[4]
*40 chanx_right_out[5]
*41 chanx_right_out[6]
*42 chanx_right_out[7]
*43 chanx_right_out[8]
*44 chanx_right_out[9]
*45 chany_top_in[0]
*46 chany_top_in[10]
*47 chany_top_in[11]
*48 chany_top_in[12]
*49 chany_top_in[13]
*50 chany_top_in[14]
*51 chany_top_in[15]
*52 chany_top_in[16]
*53 chany_top_in[17]
*54 chany_top_in[18]
*55 chany_top_in[19]
*56 chany_top_in[1]
*57 chany_top_in[2]
*58 chany_top_in[3]
*59 chany_top_in[4]
*60 chany_top_in[5]
*61 chany_top_in[6]
*62 chany_top_in[7]
*63 chany_top_in[8]
*64 chany_top_in[9]
*65 chany_top_out[0]
*66 chany_top_out[10]
*67 chany_top_out[11]
*68 chany_top_out[12]
*69 chany_top_out[13]
*70 chany_top_out[14]
*71 chany_top_out[15]
*72 chany_top_out[16]
*73 chany_top_out[17]
*74 chany_top_out[18]
*75 chany_top_out[19]
*76 chany_top_out[1]
*77 chany_top_out[2]
*78 chany_top_out[3]
*79 chany_top_out[4]
*80 chany_top_out[5]
*81 chany_top_out[6]
*82 chany_top_out[7]
*83 chany_top_out[8]
*84 chany_top_out[9]
*85 prog_clk_0_E_in
*86 right_bottom_grid_pin_11_
*87 right_bottom_grid_pin_13_
*88 right_bottom_grid_pin_15_
*89 right_bottom_grid_pin_17_
*90 right_bottom_grid_pin_1_
*91 right_bottom_grid_pin_3_
*92 right_bottom_grid_pin_5_
*93 right_bottom_grid_pin_7_
*94 right_bottom_grid_pin_9_
*95 top_left_grid_pin_1_
*96 mem_right_track_0\.ccff_head
*97 mem_right_track_0\.ccff_tail
*98 mem_right_track_0\.mem_out\[0\]
*99 mem_right_track_0\.mem_out\[1\]
*100 mem_right_track_0\.prog_clk
*101 mem_right_track_10\.ccff_head
*102 mem_right_track_10\.ccff_tail
*103 mem_right_track_10\.mem_out\[0\]
*104 mem_right_track_12\.ccff_tail
*105 mem_right_track_12\.mem_out\[0\]
*106 mem_right_track_14\.ccff_tail
*107 mem_right_track_14\.mem_out\[0\]
*108 mem_right_track_16\.ccff_tail
*109 mem_right_track_16\.mem_out\[0\]
*110 mem_right_track_18\.ccff_tail
*111 mem_right_track_18\.mem_out\[0\]
*112 mem_right_track_2\.ccff_tail
*113 mem_right_track_2\.mem_out\[0\]
*114 mem_right_track_2\.mem_out\[1\]
*115 mem_right_track_20\.ccff_tail
*116 mem_right_track_20\.mem_out\[0\]
*117 mem_right_track_22\.ccff_tail
*118 mem_right_track_22\.mem_out\[0\]
*119 mem_right_track_24\.ccff_tail
*120 mem_right_track_24\.mem_out\[0\]
*121 mem_right_track_26\.ccff_tail
*122 mem_right_track_26\.mem_out\[0\]
*123 mem_right_track_28\.ccff_tail
*124 mem_right_track_28\.mem_out\[0\]
*125 mem_right_track_30\.ccff_tail
*126 mem_right_track_30\.mem_out\[0\]
*127 mem_right_track_32\.ccff_tail
*128 mem_right_track_32\.mem_out\[0\]
*129 mem_right_track_34\.ccff_tail
*130 mem_right_track_34\.mem_out\[0\]
*131 mem_right_track_36\.ccff_tail
*132 mem_right_track_36\.mem_out\[0\]
*133 mem_right_track_38\.mem_out\[0\]
*134 mem_right_track_4\.ccff_tail
*135 mem_right_track_4\.mem_out\[0\]
*136 mem_right_track_4\.mem_out\[1\]
*137 mem_right_track_6\.ccff_tail
*138 mem_right_track_6\.mem_out\[0\]
*139 mem_right_track_6\.mem_out\[1\]
*140 mem_right_track_8\.mem_out\[0\]
*141 mem_top_track_0\.ccff_tail
*142 mem_top_track_0\.mem_out\[0\]
*143 mem_top_track_24\.ccff_head
*144 mem_top_track_24\.mem_out\[0\]
*145 mem_top_track_4\.ccff_tail
*146 mem_top_track_4\.mem_out\[0\]
*147 mem_top_track_8\.mem_out\[0\]
*148 mux_right_track_0\.out
*149 mux_right_track_0\.sky130_fd_sc_hd__mux2_1_0_X
*150 mux_right_track_0\.sky130_fd_sc_hd__mux2_1_1_X
*151 mux_right_track_0\.sky130_fd_sc_hd__mux2_1_2_X
*152 mux_right_track_0\.sky130_fd_sc_hd__mux2_1_3_X
*153 mux_right_track_0\.sky130_fd_sc_hd__mux2_1_4_X
*154 mux_right_track_0\.sky130_fd_sc_hd__mux2_1_5_X
*155 mux_right_track_10\.out
*156 mux_right_track_10\.sky130_fd_sc_hd__mux2_1_0_X
*157 mux_right_track_10\.sky130_fd_sc_hd__mux2_1_1_X
*158 mux_right_track_12\.out
*159 mux_right_track_12\.sky130_fd_sc_hd__mux2_1_0_X
*160 mux_right_track_12\.sky130_fd_sc_hd__mux2_1_1_X
*161 mux_right_track_14\.out
*162 mux_right_track_14\.sky130_fd_sc_hd__mux2_1_0_X
*163 mux_right_track_14\.sky130_fd_sc_hd__mux2_1_1_X
*164 mux_right_track_16\.out
*165 mux_right_track_16\.sky130_fd_sc_hd__mux2_1_0_X
*166 mux_right_track_16\.sky130_fd_sc_hd__mux2_1_1_X
*167 mux_right_track_18\.out
*168 mux_right_track_18\.sky130_fd_sc_hd__mux2_1_0_X
*169 mux_right_track_18\.sky130_fd_sc_hd__mux2_1_1_X
*170 mux_right_track_2\.out
*171 mux_right_track_2\.sky130_fd_sc_hd__mux2_1_0_X
*172 mux_right_track_2\.sky130_fd_sc_hd__mux2_1_1_X
*173 mux_right_track_2\.sky130_fd_sc_hd__mux2_1_2_X
*174 mux_right_track_2\.sky130_fd_sc_hd__mux2_1_3_X
*175 mux_right_track_2\.sky130_fd_sc_hd__mux2_1_4_X
*176 mux_right_track_20\.out
*177 mux_right_track_20\.sky130_fd_sc_hd__mux2_1_0_X
*178 mux_right_track_20\.sky130_fd_sc_hd__mux2_1_1_X
*179 mux_right_track_22\.out
*180 mux_right_track_22\.sky130_fd_sc_hd__mux2_1_0_X
*181 mux_right_track_22\.sky130_fd_sc_hd__mux2_1_1_X
*182 mux_right_track_24\.out
*183 mux_right_track_24\.sky130_fd_sc_hd__mux2_1_0_X
*184 mux_right_track_24\.sky130_fd_sc_hd__mux2_1_1_X
*185 mux_right_track_24\.sky130_fd_sc_hd__mux2_1_2_X
*186 mux_right_track_26\.out
*187 mux_right_track_26\.sky130_fd_sc_hd__mux2_1_0_X
*188 mux_right_track_26\.sky130_fd_sc_hd__mux2_1_1_X
*189 mux_right_track_28\.out
*190 mux_right_track_28\.sky130_fd_sc_hd__mux2_1_0_X
*191 mux_right_track_28\.sky130_fd_sc_hd__mux2_1_1_X
*192 mux_right_track_30\.out
*193 mux_right_track_30\.sky130_fd_sc_hd__mux2_1_0_X
*194 mux_right_track_30\.sky130_fd_sc_hd__mux2_1_1_X
*195 mux_right_track_32\.out
*196 mux_right_track_32\.sky130_fd_sc_hd__mux2_1_0_X
*197 mux_right_track_32\.sky130_fd_sc_hd__mux2_1_1_X
*198 mux_right_track_34\.out
*199 mux_right_track_34\.sky130_fd_sc_hd__mux2_1_0_X
*200 mux_right_track_34\.sky130_fd_sc_hd__mux2_1_1_X
*201 mux_right_track_36\.out
*202 mux_right_track_36\.sky130_fd_sc_hd__mux2_1_0_X
*203 mux_right_track_36\.sky130_fd_sc_hd__mux2_1_1_X
*204 mux_right_track_38\.out
*205 mux_right_track_38\.sky130_fd_sc_hd__mux2_1_0_X
*206 mux_right_track_38\.sky130_fd_sc_hd__mux2_1_1_X
*207 mux_right_track_4\.out
*208 mux_right_track_4\.sky130_fd_sc_hd__mux2_1_0_X
*209 mux_right_track_4\.sky130_fd_sc_hd__mux2_1_1_X
*210 mux_right_track_4\.sky130_fd_sc_hd__mux2_1_2_X
*211 mux_right_track_4\.sky130_fd_sc_hd__mux2_1_3_X
*212 mux_right_track_4\.sky130_fd_sc_hd__mux2_1_4_X
*213 mux_right_track_4\.sky130_fd_sc_hd__mux2_1_5_X
*214 mux_right_track_6\.out
*215 mux_right_track_6\.sky130_fd_sc_hd__mux2_1_0_X
*216 mux_right_track_6\.sky130_fd_sc_hd__mux2_1_1_X
*217 mux_right_track_6\.sky130_fd_sc_hd__mux2_1_2_X
*218 mux_right_track_6\.sky130_fd_sc_hd__mux2_1_3_X
*219 mux_right_track_6\.sky130_fd_sc_hd__mux2_1_4_X
*220 mux_right_track_8\.out
*221 mux_right_track_8\.sky130_fd_sc_hd__mux2_1_0_X
*222 mux_right_track_8\.sky130_fd_sc_hd__mux2_1_1_X
*223 mux_right_track_8\.sky130_fd_sc_hd__mux2_1_2_X
*224 mux_top_track_0\.out
*225 mux_top_track_0\.sky130_fd_sc_hd__mux2_1_0_X
*226 mux_top_track_0\.sky130_fd_sc_hd__mux2_1_1_X
*227 mux_top_track_24\.out
*228 mux_top_track_24\.sky130_fd_sc_hd__mux2_1_0_X
*229 mux_top_track_24\.sky130_fd_sc_hd__mux2_1_1_X
*230 mux_top_track_4\.out
*231 mux_top_track_4\.sky130_fd_sc_hd__mux2_1_0_X
*232 mux_top_track_4\.sky130_fd_sc_hd__mux2_1_1_X
*233 mux_top_track_8\.out
*234 mux_top_track_8\.sky130_fd_sc_hd__mux2_1_0_X
*235 mux_top_track_8\.sky130_fd_sc_hd__mux2_1_1_X
*236 net1
*237 net10
*238 net100
*239 net101
*240 net102
*241 net103
*242 net104
*243 net105
*244 net106
*245 net107
*246 net108
*247 net109
*248 net11
*249 net110
*250 net111
*251 net112
*252 net113
*253 net114
*254 net115
*255 net116
*256 net12
*257 net13
*258 net14
*259 net15
*260 net16
*261 net17
*262 net18
*263 net19
*264 net2
*265 net20
*266 net21
*267 net22
*268 net23
*269 net24
*270 net25
*271 net26
*272 net27
*273 net28
*274 net29
*275 net3
*276 net30
*277 net31
*278 net32
*279 net33
*280 net34
*281 net35
*282 net36
*283 net37
*284 net38
*285 net39
*286 net4
*287 net40
*288 net41
*289 net42
*290 net43
*291 net44
*292 net45
*293 net46
*294 net47
*295 net48
*296 net49
*297 net5
*298 net50
*299 net51
*300 net52
*301 net53
*302 net54
*303 net55
*304 net56
*305 net57
*306 net58
*307 net59
*308 net6
*309 net60
*310 net61
*311 net62
*312 net63
*313 net64
*314 net65
*315 net66
*316 net67
*317 net68
*318 net69
*319 net7
*320 net70
*321 net71
*322 net72
*323 net73
*324 net74
*325 net75
*326 net76
*327 net77
*328 net78
*329 net79
*330 net8
*331 net80
*332 net81
*333 net82
*334 net83
*335 net84
*336 net85
*337 net86
*338 net87
*339 net88
*340 net89
*341 net9
*342 net90
*343 net91
*344 net92
*345 net93
*346 net94
*347 net95
*348 net96
*349 net97
*350 net98
*351 net99
*352 ANTENNA_input10_A
*353 ANTENNA_input11_A
*354 ANTENNA_input12_A
*355 ANTENNA_input13_A
*356 ANTENNA_input14_A
*357 ANTENNA_input15_A
*358 ANTENNA_input16_A
*359 ANTENNA_input17_A
*360 ANTENNA_input18_A
*361 ANTENNA_input19_A
*362 ANTENNA_input1_A
*363 ANTENNA_input20_A
*364 ANTENNA_input21_A
*365 ANTENNA_input22_A
*366 ANTENNA_input23_A
*367 ANTENNA_input24_A
*368 ANTENNA_input25_A
*369 ANTENNA_input26_A
*370 ANTENNA_input27_A
*371 ANTENNA_input28_A
*372 ANTENNA_input29_A
*373 ANTENNA_input2_A
*374 ANTENNA_input30_A
*375 ANTENNA_input31_A
*376 ANTENNA_input32_A
*377 ANTENNA_input33_A
*378 ANTENNA_input34_A
*379 ANTENNA_input35_A
*380 ANTENNA_input36_A
*381 ANTENNA_input37_A
*382 ANTENNA_input38_A
*383 ANTENNA_input39_A
*384 ANTENNA_input3_A
*385 ANTENNA_input40_A
*386 ANTENNA_input41_A
*387 ANTENNA_input42_A
*388 ANTENNA_input43_A
*389 ANTENNA_input44_A
*390 ANTENNA_input45_A
*391 ANTENNA_input46_A
*392 ANTENNA_input47_A
*393 ANTENNA_input48_A
*394 ANTENNA_input49_A
*395 ANTENNA_input4_A
*396 ANTENNA_input50_A
*397 ANTENNA_input51_A
*398 ANTENNA_input5_A
*399 ANTENNA_input6_A
*400 ANTENNA_input7_A
*401 ANTENNA_input8_A
*402 ANTENNA_input9_A
*403 ANTENNA_mem_right_track_0\.sky130_fd_sc_hd__dfxtp_1_0__CLK
*404 ANTENNA_mem_right_track_0\.sky130_fd_sc_hd__dfxtp_1_1__CLK
*405 ANTENNA_mem_right_track_0\.sky130_fd_sc_hd__dfxtp_1_2__CLK
*406 ANTENNA_mem_right_track_10\.sky130_fd_sc_hd__dfxtp_1_0__CLK
*407 ANTENNA_mem_right_track_10\.sky130_fd_sc_hd__dfxtp_1_1__CLK
*408 ANTENNA_mem_right_track_12\.sky130_fd_sc_hd__dfxtp_1_0__CLK
*409 ANTENNA_mem_right_track_12\.sky130_fd_sc_hd__dfxtp_1_1__CLK
*410 ANTENNA_mem_right_track_14\.sky130_fd_sc_hd__dfxtp_1_0__CLK
*411 ANTENNA_mem_right_track_14\.sky130_fd_sc_hd__dfxtp_1_1__CLK
*412 ANTENNA_mem_right_track_16\.sky130_fd_sc_hd__dfxtp_1_0__CLK
*413 ANTENNA_mem_right_track_16\.sky130_fd_sc_hd__dfxtp_1_1__CLK
*414 ANTENNA_mem_right_track_18\.sky130_fd_sc_hd__dfxtp_1_0__CLK
*415 ANTENNA_mem_right_track_18\.sky130_fd_sc_hd__dfxtp_1_1__CLK
*416 ANTENNA_mem_right_track_2\.sky130_fd_sc_hd__dfxtp_1_0__CLK
*417 ANTENNA_mem_right_track_2\.sky130_fd_sc_hd__dfxtp_1_1__CLK
*418 ANTENNA_mem_right_track_2\.sky130_fd_sc_hd__dfxtp_1_2__CLK
*419 ANTENNA_mem_right_track_20\.sky130_fd_sc_hd__dfxtp_1_0__CLK
*420 ANTENNA_mem_right_track_20\.sky130_fd_sc_hd__dfxtp_1_1__CLK
*421 ANTENNA_mem_right_track_22\.sky130_fd_sc_hd__dfxtp_1_0__CLK
*422 ANTENNA_mem_right_track_22\.sky130_fd_sc_hd__dfxtp_1_1__CLK
*423 ANTENNA_mem_right_track_24\.sky130_fd_sc_hd__dfxtp_1_0__CLK
*424 ANTENNA_mem_right_track_24\.sky130_fd_sc_hd__dfxtp_1_1__CLK
*425 ANTENNA_mem_right_track_26\.sky130_fd_sc_hd__dfxtp_1_0__CLK
*426 ANTENNA_mem_right_track_26\.sky130_fd_sc_hd__dfxtp_1_1__CLK
*427 ANTENNA_mem_right_track_28\.sky130_fd_sc_hd__dfxtp_1_0__CLK
*428 ANTENNA_mem_right_track_28\.sky130_fd_sc_hd__dfxtp_1_1__CLK
*429 ANTENNA_mem_right_track_30\.sky130_fd_sc_hd__dfxtp_1_0__CLK
*430 ANTENNA_mem_right_track_30\.sky130_fd_sc_hd__dfxtp_1_1__CLK
*431 ANTENNA_mem_right_track_32\.sky130_fd_sc_hd__dfxtp_1_0__CLK
*432 ANTENNA_mem_right_track_32\.sky130_fd_sc_hd__dfxtp_1_1__CLK
*433 ANTENNA_mem_right_track_34\.sky130_fd_sc_hd__dfxtp_1_0__CLK
*434 ANTENNA_mem_right_track_34\.sky130_fd_sc_hd__dfxtp_1_1__CLK
*435 ANTENNA_mem_right_track_36\.sky130_fd_sc_hd__dfxtp_1_0__CLK
*436 ANTENNA_mem_right_track_36\.sky130_fd_sc_hd__dfxtp_1_1__CLK
*437 ANTENNA_mem_right_track_38\.sky130_fd_sc_hd__dfxtp_1_0__CLK
*438 ANTENNA_mem_right_track_38\.sky130_fd_sc_hd__dfxtp_1_1__CLK
*439 ANTENNA_mem_right_track_4\.sky130_fd_sc_hd__dfxtp_1_0__CLK
*440 ANTENNA_mem_right_track_4\.sky130_fd_sc_hd__dfxtp_1_1__CLK
*441 ANTENNA_mem_right_track_4\.sky130_fd_sc_hd__dfxtp_1_2__CLK
*442 ANTENNA_mem_right_track_6\.sky130_fd_sc_hd__dfxtp_1_0__CLK
*443 ANTENNA_mem_right_track_6\.sky130_fd_sc_hd__dfxtp_1_1__CLK
*444 ANTENNA_mem_right_track_6\.sky130_fd_sc_hd__dfxtp_1_2__CLK
*445 ANTENNA_mem_right_track_8\.sky130_fd_sc_hd__dfxtp_1_0__CLK
*446 ANTENNA_mem_right_track_8\.sky130_fd_sc_hd__dfxtp_1_1__CLK
*447 ANTENNA_mem_top_track_0\.sky130_fd_sc_hd__dfxtp_1_0__CLK
*448 ANTENNA_mem_top_track_0\.sky130_fd_sc_hd__dfxtp_1_1__CLK
*449 ANTENNA_mem_top_track_24\.sky130_fd_sc_hd__dfxtp_1_0__CLK
*450 ANTENNA_mem_top_track_24\.sky130_fd_sc_hd__dfxtp_1_1__CLK
*451 ANTENNA_mem_top_track_4\.sky130_fd_sc_hd__dfxtp_1_0__CLK
*452 ANTENNA_mem_top_track_4\.sky130_fd_sc_hd__dfxtp_1_1__CLK
*453 ANTENNA_mem_top_track_8\.sky130_fd_sc_hd__dfxtp_1_0__CLK
*454 ANTENNA_mem_top_track_8\.sky130_fd_sc_hd__dfxtp_1_1__CLK
*455 ANTENNA_mux_right_track_0\.mux_l1_in_0__A1
*456 ANTENNA_mux_right_track_0\.mux_l1_in_1__A0
*457 ANTENNA_mux_right_track_0\.mux_l1_in_1__A1
*458 ANTENNA_mux_right_track_0\.mux_l1_in_2__A1
*459 ANTENNA_mux_right_track_10\.mux_l1_in_0__A0
*460 ANTENNA_mux_right_track_12\.mux_l1_in_0__A0
*461 ANTENNA_mux_right_track_14\.mux_l1_in_0__A0
*462 ANTENNA_mux_right_track_16\.mux_l1_in_0__A0
*463 ANTENNA_mux_right_track_18\.mux_l1_in_0__A0
*464 ANTENNA_mux_right_track_2\.mux_l1_in_0__A0
*465 ANTENNA_mux_right_track_2\.mux_l1_in_1__A0
*466 ANTENNA_mux_right_track_2\.mux_l1_in_1__A1
*467 ANTENNA_mux_right_track_2\.mux_l2_in_1__A1
*468 ANTENNA_mux_right_track_20\.mux_l1_in_0__A0
*469 ANTENNA_mux_right_track_22\.mux_l1_in_0__A0
*470 ANTENNA_mux_right_track_24\.mux_l1_in_0__A1
*471 ANTENNA_mux_right_track_26\.mux_l1_in_0__A0
*472 ANTENNA_mux_right_track_28\.mux_l1_in_0__A0
*473 ANTENNA_mux_right_track_30\.mux_l1_in_0__A0
*474 ANTENNA_mux_right_track_32\.mux_l1_in_0__A0
*475 ANTENNA_mux_right_track_34\.mux_l1_in_0__A0
*476 ANTENNA_mux_right_track_36\.mux_l1_in_0__A0
*477 ANTENNA_mux_right_track_38\.mux_l1_in_0__A0
*478 ANTENNA_mux_right_track_4\.mux_l1_in_0__A1
*479 ANTENNA_mux_right_track_4\.mux_l1_in_1__A0
*480 ANTENNA_mux_right_track_4\.mux_l1_in_1__A1
*481 ANTENNA_mux_right_track_4\.mux_l1_in_2__A1
*482 ANTENNA_mux_right_track_6\.mux_l1_in_0__A0
*483 ANTENNA_mux_right_track_6\.mux_l1_in_0__A1
*484 ANTENNA_mux_right_track_6\.mux_l1_in_1__A0
*485 ANTENNA_mux_right_track_6\.mux_l1_in_1__A1
*486 ANTENNA_mux_right_track_6\.mux_l2_in_1__A1
*487 ANTENNA_mux_right_track_8\.mux_l1_in_0__A1
*488 ANTENNA_mux_top_track_0\.mux_l1_in_0__A1
*489 ANTENNA_mux_top_track_24\.mux_l1_in_0__A1
*490 ANTENNA_mux_top_track_4\.mux_l1_in_0__A1
*491 ANTENNA_mux_top_track_8\.mux_l1_in_0__A1
*492 ANTENNA_output84_A
*493 ANTENNA_prog_clk_0_FTB00_A
*494 FILLER_0_109
*495 FILLER_0_113
*496 FILLER_0_125
*497 FILLER_0_137
*498 FILLER_0_141
*499 FILLER_0_15
*500 FILLER_0_153
*501 FILLER_0_165
*502 FILLER_0_169
*503 FILLER_0_181
*504 FILLER_0_193
*505 FILLER_0_199
*506 FILLER_0_203
*507 FILLER_0_209
*508 FILLER_0_221
*509 FILLER_0_27
*510 FILLER_0_29
*511 FILLER_0_3
*512 FILLER_0_41
*513 FILLER_0_53
*514 FILLER_0_57
*515 FILLER_0_69
*516 FILLER_0_81
*517 FILLER_0_85
*518 FILLER_0_97
*519 FILLER_10_109
*520 FILLER_10_113
*521 FILLER_10_117
*522 FILLER_10_121
*523 FILLER_10_133
*524 FILLER_10_139
*525 FILLER_10_144
*526 FILLER_10_148
*527 FILLER_10_15
*528 FILLER_10_154
*529 FILLER_10_158
*530 FILLER_10_170
*531 FILLER_10_176
*532 FILLER_10_186
*533 FILLER_10_191
*534 FILLER_10_195
*535 FILLER_10_197
*536 FILLER_10_202
*537 FILLER_10_206
*538 FILLER_10_211
*539 FILLER_10_216
*540 FILLER_10_221
*541 FILLER_10_27
*542 FILLER_10_29
*543 FILLER_10_3
*544 FILLER_10_41
*545 FILLER_10_53
*546 FILLER_10_65
*547 FILLER_10_77
*548 FILLER_10_83
*549 FILLER_10_85
*550 FILLER_10_97
*551 FILLER_11_110
*552 FILLER_11_122
*553 FILLER_11_126
*554 FILLER_11_130
*555 FILLER_11_140
*556 FILLER_11_145
*557 FILLER_11_149
*558 FILLER_11_15
*559 FILLER_11_153
*560 FILLER_11_161
*561 FILLER_11_165
*562 FILLER_11_172
*563 FILLER_11_183
*564 FILLER_11_193
*565 FILLER_11_204
*566 FILLER_11_208
*567 FILLER_11_212
*568 FILLER_11_217
*569 FILLER_11_221
*570 FILLER_11_27
*571 FILLER_11_3
*572 FILLER_11_39
*573 FILLER_11_51
*574 FILLER_11_55
*575 FILLER_11_57
*576 FILLER_11_69
*577 FILLER_11_81
*578 FILLER_11_93
*579 FILLER_12_110
*580 FILLER_12_121
*581 FILLER_12_125
*582 FILLER_12_135
*583 FILLER_12_139
*584 FILLER_12_143
*585 FILLER_12_15
*586 FILLER_12_154
*587 FILLER_12_165
*588 FILLER_12_173
*589 FILLER_12_178
*590 FILLER_12_189
*591 FILLER_12_194
*592 FILLER_12_200
*593 FILLER_12_204
*594 FILLER_12_215
*595 FILLER_12_220
*596 FILLER_12_27
*597 FILLER_12_29
*598 FILLER_12_3
*599 FILLER_12_41
*600 FILLER_12_53
*601 FILLER_12_65
*602 FILLER_12_82
*603 FILLER_12_87
*604 FILLER_12_91
*605 FILLER_12_99
*606 FILLER_13_107
*607 FILLER_13_111
*608 FILLER_13_115
*609 FILLER_13_127
*610 FILLER_13_139
*611 FILLER_13_15
*612 FILLER_13_151
*613 FILLER_13_156
*614 FILLER_13_169
*615 FILLER_13_181
*616 FILLER_13_185
*617 FILLER_13_188
*618 FILLER_13_192
*619 FILLER_13_196
*620 FILLER_13_201
*621 FILLER_13_206
*622 FILLER_13_211
*623 FILLER_13_216
*624 FILLER_13_221
*625 FILLER_13_27
*626 FILLER_13_3
*627 FILLER_13_39
*628 FILLER_13_51
*629 FILLER_13_55
*630 FILLER_13_57
*631 FILLER_13_69
*632 FILLER_13_73
*633 FILLER_13_83
*634 FILLER_13_95
*635 FILLER_14_109
*636 FILLER_14_113
*637 FILLER_14_117
*638 FILLER_14_129
*639 FILLER_14_137
*640 FILLER_14_141
*641 FILLER_14_147
*642 FILLER_14_15
*643 FILLER_14_164
*644 FILLER_14_168
*645 FILLER_14_180
*646 FILLER_14_184
*647 FILLER_14_187
*648 FILLER_14_191
*649 FILLER_14_194
*650 FILLER_14_197
*651 FILLER_14_202
*652 FILLER_14_207
*653 FILLER_14_212
*654 FILLER_14_217
*655 FILLER_14_221
*656 FILLER_14_27
*657 FILLER_14_29
*658 FILLER_14_3
*659 FILLER_14_41
*660 FILLER_14_53
*661 FILLER_14_65
*662 FILLER_14_77
*663 FILLER_14_83
*664 FILLER_14_85
*665 FILLER_15_109
*666 FILLER_15_113
*667 FILLER_15_130
*668 FILLER_15_134
*669 FILLER_15_15
*670 FILLER_15_152
*671 FILLER_15_156
*672 FILLER_15_185
*673 FILLER_15_203
*674 FILLER_15_221
*675 FILLER_15_27
*676 FILLER_15_3
*677 FILLER_15_39
*678 FILLER_15_51
*679 FILLER_15_55
*680 FILLER_15_57
*681 FILLER_15_74
*682 FILLER_15_78
*683 FILLER_15_90
*684 FILLER_16_112
*685 FILLER_16_116
*686 FILLER_16_138
*687 FILLER_16_15
*688 FILLER_16_157
*689 FILLER_16_161
*690 FILLER_16_173
*691 FILLER_16_192
*692 FILLER_16_197
*693 FILLER_16_214
*694 FILLER_16_221
*695 FILLER_16_27
*696 FILLER_16_29
*697 FILLER_16_3
*698 FILLER_16_41
*699 FILLER_16_53
*700 FILLER_16_65
*701 FILLER_16_77
*702 FILLER_16_83
*703 FILLER_16_85
*704 FILLER_16_93
*705 FILLER_17_111
*706 FILLER_17_113
*707 FILLER_17_125
*708 FILLER_17_137
*709 FILLER_17_140
*710 FILLER_17_15
*711 FILLER_17_152
*712 FILLER_17_164
*713 FILLER_17_169
*714 FILLER_17_181
*715 FILLER_17_187
*716 FILLER_17_190
*717 FILLER_17_194
*718 FILLER_17_199
*719 FILLER_17_217
*720 FILLER_17_221
*721 FILLER_17_27
*722 FILLER_17_3
*723 FILLER_17_39
*724 FILLER_17_47
*725 FILLER_17_51
*726 FILLER_17_55
*727 FILLER_17_57
*728 FILLER_17_69
*729 FILLER_17_75
*730 FILLER_17_87
*731 FILLER_17_99
*732 FILLER_18_110
*733 FILLER_18_114
*734 FILLER_18_126
*735 FILLER_18_138
*736 FILLER_18_141
*737 FILLER_18_15
*738 FILLER_18_158
*739 FILLER_18_162
*740 FILLER_18_174
*741 FILLER_18_186
*742 FILLER_18_194
*743 FILLER_18_197
*744 FILLER_18_201
*745 FILLER_18_206
*746 FILLER_18_211
*747 FILLER_18_216
*748 FILLER_18_221
*749 FILLER_18_27
*750 FILLER_18_29
*751 FILLER_18_3
*752 FILLER_18_37
*753 FILLER_18_48
*754 FILLER_18_59
*755 FILLER_18_63
*756 FILLER_18_78
*757 FILLER_18_85
*758 FILLER_18_93
*759 FILLER_19_110
*760 FILLER_19_115
*761 FILLER_19_127
*762 FILLER_19_139
*763 FILLER_19_15
*764 FILLER_19_156
*765 FILLER_19_160
*766 FILLER_19_169
*767 FILLER_19_186
*768 FILLER_19_190
*769 FILLER_19_204
*770 FILLER_19_209
*771 FILLER_19_214
*772 FILLER_19_221
*773 FILLER_19_27
*774 FILLER_19_3
*775 FILLER_19_39
*776 FILLER_19_51
*777 FILLER_19_55
*778 FILLER_19_57
*779 FILLER_19_65
*780 FILLER_19_75
*781 FILLER_19_80
*782 FILLER_19_84
*783 FILLER_19_92
*784 FILLER_1_105
*785 FILLER_1_111
*786 FILLER_1_113
*787 FILLER_1_125
*788 FILLER_1_137
*789 FILLER_1_149
*790 FILLER_1_15
*791 FILLER_1_161
*792 FILLER_1_167
*793 FILLER_1_169
*794 FILLER_1_181
*795 FILLER_1_195
*796 FILLER_1_199
*797 FILLER_1_203
*798 FILLER_1_209
*799 FILLER_1_215
*800 FILLER_1_221
*801 FILLER_1_27
*802 FILLER_1_3
*803 FILLER_1_39
*804 FILLER_1_51
*805 FILLER_1_55
*806 FILLER_1_57
*807 FILLER_1_69
*808 FILLER_1_81
*809 FILLER_1_93
*810 FILLER_20_112
*811 FILLER_20_116
*812 FILLER_20_135
*813 FILLER_20_139
*814 FILLER_20_143
*815 FILLER_20_15
*816 FILLER_20_167
*817 FILLER_20_185
*818 FILLER_20_190
*819 FILLER_20_194
*820 FILLER_20_197
*821 FILLER_20_200
*822 FILLER_20_205
*823 FILLER_20_210
*824 FILLER_20_215
*825 FILLER_20_221
*826 FILLER_20_27
*827 FILLER_20_29
*828 FILLER_20_3
*829 FILLER_20_41
*830 FILLER_20_53
*831 FILLER_20_65
*832 FILLER_20_80
*833 FILLER_20_87
*834 FILLER_20_95
*835 FILLER_21_108
*836 FILLER_21_115
*837 FILLER_21_143
*838 FILLER_21_147
*839 FILLER_21_15
*840 FILLER_21_159
*841 FILLER_21_167
*842 FILLER_21_171
*843 FILLER_21_179
*844 FILLER_21_198
*845 FILLER_21_216
*846 FILLER_21_221
*847 FILLER_21_27
*848 FILLER_21_3
*849 FILLER_21_39
*850 FILLER_21_51
*851 FILLER_21_55
*852 FILLER_21_57
*853 FILLER_21_70
*854 FILLER_21_79
*855 FILLER_21_91
*856 FILLER_22_111
*857 FILLER_22_123
*858 FILLER_22_135
*859 FILLER_22_139
*860 FILLER_22_141
*861 FILLER_22_15
*862 FILLER_22_163
*863 FILLER_22_167
*864 FILLER_22_172
*865 FILLER_22_192
*866 FILLER_22_199
*867 FILLER_22_207
*868 FILLER_22_210
*869 FILLER_22_215
*870 FILLER_22_221
*871 FILLER_22_27
*872 FILLER_22_29
*873 FILLER_22_3
*874 FILLER_22_41
*875 FILLER_22_53
*876 FILLER_22_74
*877 FILLER_22_79
*878 FILLER_22_83
*879 FILLER_22_85
*880 FILLER_22_97
*881 FILLER_23_109
*882 FILLER_23_129
*883 FILLER_23_133
*884 FILLER_23_145
*885 FILLER_23_15
*886 FILLER_23_157
*887 FILLER_23_165
*888 FILLER_23_172
*889 FILLER_23_177
*890 FILLER_23_189
*891 FILLER_23_201
*892 FILLER_23_205
*893 FILLER_23_209
*894 FILLER_23_214
*895 FILLER_23_221
*896 FILLER_23_27
*897 FILLER_23_3
*898 FILLER_23_39
*899 FILLER_23_54
*900 FILLER_23_60
*901 FILLER_23_69
*902 FILLER_23_81
*903 FILLER_24_110
*904 FILLER_24_114
*905 FILLER_24_138
*906 FILLER_24_143
*907 FILLER_24_15
*908 FILLER_24_155
*909 FILLER_24_174
*910 FILLER_24_178
*911 FILLER_24_189
*912 FILLER_24_195
*913 FILLER_24_197
*914 FILLER_24_203
*915 FILLER_24_207
*916 FILLER_24_212
*917 FILLER_24_216
*918 FILLER_24_221
*919 FILLER_24_27
*920 FILLER_24_29
*921 FILLER_24_3
*922 FILLER_24_41
*923 FILLER_24_50
*924 FILLER_24_62
*925 FILLER_24_70
*926 FILLER_24_80
*927 FILLER_24_87
*928 FILLER_24_93
*929 FILLER_25_102
*930 FILLER_25_110
*931 FILLER_25_115
*932 FILLER_25_127
*933 FILLER_25_149
*934 FILLER_25_15
*935 FILLER_25_153
*936 FILLER_25_165
*937 FILLER_25_169
*938 FILLER_25_177
*939 FILLER_25_181
*940 FILLER_25_188
*941 FILLER_25_195
*942 FILLER_25_200
*943 FILLER_25_205
*944 FILLER_25_209
*945 FILLER_25_215
*946 FILLER_25_221
*947 FILLER_25_27
*948 FILLER_25_3
*949 FILLER_25_39
*950 FILLER_25_51
*951 FILLER_25_55
*952 FILLER_25_57
*953 FILLER_25_60
*954 FILLER_25_66
*955 FILLER_25_70
*956 FILLER_25_85
*957 FILLER_25_90
*958 FILLER_26_113
*959 FILLER_26_133
*960 FILLER_26_137
*961 FILLER_26_141
*962 FILLER_26_147
*963 FILLER_26_15
*964 FILLER_26_159
*965 FILLER_26_171
*966 FILLER_26_183
*967 FILLER_26_188
*968 FILLER_26_193
*969 FILLER_26_197
*970 FILLER_26_217
*971 FILLER_26_221
*972 FILLER_26_27
*973 FILLER_26_29
*974 FILLER_26_3
*975 FILLER_26_37
*976 FILLER_26_47
*977 FILLER_26_58
*978 FILLER_26_70
*979 FILLER_26_81
*980 FILLER_26_87
*981 FILLER_26_95
*982 FILLER_27_110
*983 FILLER_27_115
*984 FILLER_27_127
*985 FILLER_27_145
*986 FILLER_27_15
*987 FILLER_27_163
*988 FILLER_27_167
*989 FILLER_27_171
*990 FILLER_27_183
*991 FILLER_27_193
*992 FILLER_27_198
*993 FILLER_27_203
*994 FILLER_27_209
*995 FILLER_27_215
*996 FILLER_27_221
*997 FILLER_27_27
*998 FILLER_27_3
*999 FILLER_27_39
*1000 FILLER_27_49
*1001 FILLER_27_55
*1002 FILLER_27_57
*1003 FILLER_27_69
*1004 FILLER_27_81
*1005 FILLER_27_93
*1006 FILLER_28_109
*1007 FILLER_28_121
*1008 FILLER_28_133
*1009 FILLER_28_139
*1010 FILLER_28_141
*1011 FILLER_28_153
*1012 FILLER_28_165
*1013 FILLER_28_174
*1014 FILLER_28_19
*1015 FILLER_28_194
*1016 FILLER_28_200
*1017 FILLER_28_218
*1018 FILLER_28_222
*1019 FILLER_28_27
*1020 FILLER_28_29
*1021 FILLER_28_37
*1022 FILLER_28_49
*1023 FILLER_28_57
*1024 FILLER_28_61
*1025 FILLER_28_65
*1026 FILLER_28_7
*1027 FILLER_28_75
*1028 FILLER_28_79
*1029 FILLER_28_83
*1030 FILLER_28_85
*1031 FILLER_28_97
*1032 FILLER_29_110
*1033 FILLER_29_115
*1034 FILLER_29_143
*1035 FILLER_29_147
*1036 FILLER_29_15
*1037 FILLER_29_159
*1038 FILLER_29_164
*1039 FILLER_29_169
*1040 FILLER_29_187
*1041 FILLER_29_191
*1042 FILLER_29_197
*1043 FILLER_29_203
*1044 FILLER_29_209
*1045 FILLER_29_215
*1046 FILLER_29_221
*1047 FILLER_29_27
*1048 FILLER_29_3
*1049 FILLER_29_39
*1050 FILLER_29_43
*1051 FILLER_29_47
*1052 FILLER_29_55
*1053 FILLER_29_66
*1054 FILLER_29_70
*1055 FILLER_29_74
*1056 FILLER_29_84
*1057 FILLER_29_88
*1058 FILLER_2_109
*1059 FILLER_2_121
*1060 FILLER_2_133
*1061 FILLER_2_139
*1062 FILLER_2_141
*1063 FILLER_2_15
*1064 FILLER_2_153
*1065 FILLER_2_165
*1066 FILLER_2_177
*1067 FILLER_2_189
*1068 FILLER_2_195
*1069 FILLER_2_197
*1070 FILLER_2_201
*1071 FILLER_2_204
*1072 FILLER_2_208
*1073 FILLER_2_212
*1074 FILLER_2_216
*1075 FILLER_2_221
*1076 FILLER_2_27
*1077 FILLER_2_29
*1078 FILLER_2_3
*1079 FILLER_2_41
*1080 FILLER_2_53
*1081 FILLER_2_65
*1082 FILLER_2_77
*1083 FILLER_2_83
*1084 FILLER_2_85
*1085 FILLER_2_97
*1086 FILLER_30_116
*1087 FILLER_30_120
*1088 FILLER_30_124
*1089 FILLER_30_138
*1090 FILLER_30_141
*1091 FILLER_30_153
*1092 FILLER_30_165
*1093 FILLER_30_168
*1094 FILLER_30_17
*1095 FILLER_30_172
*1096 FILLER_30_177
*1097 FILLER_30_182
*1098 FILLER_30_187
*1099 FILLER_30_194
*1100 FILLER_30_201
*1101 FILLER_30_219
*1102 FILLER_30_25
*1103 FILLER_30_29
*1104 FILLER_30_41
*1105 FILLER_30_47
*1106 FILLER_30_5
*1107 FILLER_30_57
*1108 FILLER_30_61
*1109 FILLER_30_73
*1110 FILLER_30_77
*1111 FILLER_30_83
*1112 FILLER_30_87
*1113 FILLER_30_91
*1114 FILLER_30_94
*1115 FILLER_30_98
*1116 FILLER_31_10
*1117 FILLER_31_110
*1118 FILLER_31_115
*1119 FILLER_31_119
*1120 FILLER_31_123
*1121 FILLER_31_126
*1122 FILLER_31_14
*1123 FILLER_31_144
*1124 FILLER_31_148
*1125 FILLER_31_166
*1126 FILLER_31_169
*1127 FILLER_31_175
*1128 FILLER_31_180
*1129 FILLER_31_185
*1130 FILLER_31_191
*1131 FILLER_31_197
*1132 FILLER_31_203
*1133 FILLER_31_209
*1134 FILLER_31_215
*1135 FILLER_31_221
*1136 FILLER_31_26
*1137 FILLER_31_36
*1138 FILLER_31_42
*1139 FILLER_31_46
*1140 FILLER_31_54
*1141 FILLER_31_6
*1142 FILLER_31_60
*1143 FILLER_31_64
*1144 FILLER_31_68
*1145 FILLER_31_72
*1146 FILLER_31_77
*1147 FILLER_31_82
*1148 FILLER_31_88
*1149 FILLER_31_92
*1150 FILLER_32_111
*1151 FILLER_32_117
*1152 FILLER_32_12
*1153 FILLER_32_121
*1154 FILLER_32_125
*1155 FILLER_32_136
*1156 FILLER_32_145
*1157 FILLER_32_150
*1158 FILLER_32_155
*1159 FILLER_32_161
*1160 FILLER_32_166
*1161 FILLER_32_17
*1162 FILLER_32_170
*1163 FILLER_32_175
*1164 FILLER_32_181
*1165 FILLER_32_192
*1166 FILLER_32_201
*1167 FILLER_32_205
*1168 FILLER_32_218
*1169 FILLER_32_22
*1170 FILLER_32_222
*1171 FILLER_32_26
*1172 FILLER_32_3
*1173 FILLER_32_32
*1174 FILLER_32_38
*1175 FILLER_32_42
*1176 FILLER_32_46
*1177 FILLER_32_57
*1178 FILLER_32_68
*1179 FILLER_32_79
*1180 FILLER_32_8
*1181 FILLER_32_83
*1182 FILLER_32_88
*1183 FILLER_32_93
*1184 FILLER_33_100
*1185 FILLER_33_105
*1186 FILLER_33_110
*1187 FILLER_33_113
*1188 FILLER_33_120
*1189 FILLER_33_126
*1190 FILLER_33_137
*1191 FILLER_33_14
*1192 FILLER_33_145
*1193 FILLER_33_151
*1194 FILLER_33_157
*1195 FILLER_33_163
*1196 FILLER_33_167
*1197 FILLER_33_173
*1198 FILLER_33_179
*1199 FILLER_33_185
*1200 FILLER_33_191
*1201 FILLER_33_195
*1202 FILLER_33_20
*1203 FILLER_33_201
*1204 FILLER_33_207
*1205 FILLER_33_213
*1206 FILLER_33_219
*1207 FILLER_33_26
*1208 FILLER_33_29
*1209 FILLER_33_34
*1210 FILLER_33_39
*1211 FILLER_33_44
*1212 FILLER_33_49
*1213 FILLER_33_54
*1214 FILLER_33_57
*1215 FILLER_33_62
*1216 FILLER_33_67
*1217 FILLER_33_7
*1218 FILLER_33_72
*1219 FILLER_33_77
*1220 FILLER_33_82
*1221 FILLER_33_94
*1222 FILLER_3_105
*1223 FILLER_3_111
*1224 FILLER_3_113
*1225 FILLER_3_125
*1226 FILLER_3_137
*1227 FILLER_3_147
*1228 FILLER_3_15
*1229 FILLER_3_158
*1230 FILLER_3_166
*1231 FILLER_3_178
*1232 FILLER_3_190
*1233 FILLER_3_202
*1234 FILLER_3_205
*1235 FILLER_3_209
*1236 FILLER_3_214
*1237 FILLER_3_221
*1238 FILLER_3_27
*1239 FILLER_3_3
*1240 FILLER_3_39
*1241 FILLER_3_51
*1242 FILLER_3_55
*1243 FILLER_3_57
*1244 FILLER_3_69
*1245 FILLER_3_81