*SPEF "ieee 1481-1999"
*DESIGN "sb_0__1_"
*DATE "11:11:11 Fri 11 11, 1111"
*VENDOR "OpenRCX"
*PROGRAM "Parallel Extraction"
*VERSION "1.0"
*DESIGN_FLOW "NAME_SCOPE LOCAL" "PIN_CAP NONE"
*DIVIDER /
*DELIMITER :
*BUS_DELIMITER []
*T_UNIT 1 NS
*C_UNIT 1 PF
*R_UNIT 1 OHM
*L_UNIT 1 HENRY

*NAME_MAP
*3 bottom_left_grid_pin_1_
*4 ccff_head
*5 ccff_tail
*6 chanx_right_in[0]
*7 chanx_right_in[10]
*8 chanx_right_in[11]
*9 chanx_right_in[12]
*10 chanx_right_in[13]
*11 chanx_right_in[14]
*12 chanx_right_in[15]
*13 chanx_right_in[16]
*14 chanx_right_in[17]
*15 chanx_right_in[18]
*16 chanx_right_in[19]
*17 chanx_right_in[1]
*18 chanx_right_in[2]
*19 chanx_right_in[3]
*20 chanx_right_in[4]
*21 chanx_right_in[5]
*22 chanx_right_in[6]
*23 chanx_right_in[7]
*24 chanx_right_in[8]
*25 chanx_right_in[9]
*26 chanx_right_out[0]
*27 chanx_right_out[10]
*28 chanx_right_out[11]
*29 chanx_right_out[12]
*30 chanx_right_out[13]
*31 chanx_right_out[14]
*32 chanx_right_out[15]
*33 chanx_right_out[16]
*34 chanx_right_out[17]
*35 chanx_right_out[18]
*36 chanx_right_out[19]
*37 chanx_right_out[1]
*38 chanx_right_out[2]
*39 chanx_right_out[3]
*40 chanx_right_out[4]
*41 chanx_right_out[5]
*42 chanx_right_out[6]
*43 chanx_right_out[7]
*44 chanx_right_out[8]
*45 chanx_right_out[9]
*46 chany_bottom_in[0]
*47 chany_bottom_in[10]
*48 chany_bottom_in[11]
*49 chany_bottom_in[12]
*50 chany_bottom_in[13]
*51 chany_bottom_in[14]
*52 chany_bottom_in[15]
*53 chany_bottom_in[16]
*54 chany_bottom_in[17]
*55 chany_bottom_in[18]
*56 chany_bottom_in[19]
*57 chany_bottom_in[1]
*58 chany_bottom_in[2]
*59 chany_bottom_in[3]
*60 chany_bottom_in[4]
*61 chany_bottom_in[5]
*62 chany_bottom_in[6]
*63 chany_bottom_in[7]
*64 chany_bottom_in[8]
*65 chany_bottom_in[9]
*66 chany_bottom_out[0]
*67 chany_bottom_out[10]
*68 chany_bottom_out[11]
*69 chany_bottom_out[12]
*70 chany_bottom_out[13]
*71 chany_bottom_out[14]
*72 chany_bottom_out[15]
*73 chany_bottom_out[16]
*74 chany_bottom_out[17]
*75 chany_bottom_out[18]
*76 chany_bottom_out[19]
*77 chany_bottom_out[1]
*78 chany_bottom_out[2]
*79 chany_bottom_out[3]
*80 chany_bottom_out[4]
*81 chany_bottom_out[5]
*82 chany_bottom_out[6]
*83 chany_bottom_out[7]
*84 chany_bottom_out[8]
*85 chany_bottom_out[9]
*86 chany_top_in[0]
*87 chany_top_in[10]
*88 chany_top_in[11]
*89 chany_top_in[12]
*90 chany_top_in[13]
*91 chany_top_in[14]
*92 chany_top_in[15]
*93 chany_top_in[16]
*94 chany_top_in[17]
*95 chany_top_in[18]
*96 chany_top_in[19]
*97 chany_top_in[1]
*98 chany_top_in[2]
*99 chany_top_in[3]
*100 chany_top_in[4]
*101 chany_top_in[5]
*102 chany_top_in[6]
*103 chany_top_in[7]
*104 chany_top_in[8]
*105 chany_top_in[9]
*106 chany_top_out[0]
*107 chany_top_out[10]
*108 chany_top_out[11]
*109 chany_top_out[12]
*110 chany_top_out[13]
*111 chany_top_out[14]
*112 chany_top_out[15]
*113 chany_top_out[16]
*114 chany_top_out[17]
*115 chany_top_out[18]
*116 chany_top_out[19]
*117 chany_top_out[1]
*118 chany_top_out[2]
*119 chany_top_out[3]
*120 chany_top_out[4]
*121 chany_top_out[5]
*122 chany_top_out[6]
*123 chany_top_out[7]
*124 chany_top_out[8]
*125 chany_top_out[9]
*126 prog_clk_0_E_in
*127 right_bottom_grid_pin_34_
*128 right_bottom_grid_pin_35_
*129 right_bottom_grid_pin_36_
*130 right_bottom_grid_pin_37_
*131 right_bottom_grid_pin_38_
*132 right_bottom_grid_pin_39_
*133 right_bottom_grid_pin_40_
*134 right_bottom_grid_pin_41_
*135 top_left_grid_pin_1_
*136 mem_bottom_track_1\.ccff_head
*137 mem_bottom_track_1\.ccff_tail
*138 mem_bottom_track_1\.mem_out\[0\]
*139 mem_bottom_track_1\.mem_out\[1\]
*140 mem_bottom_track_1\.prog_clk
*141 mem_bottom_track_17\.ccff_head
*142 mem_bottom_track_17\.ccff_tail
*143 mem_bottom_track_17\.mem_out\[0\]
*144 mem_bottom_track_17\.mem_out\[1\]
*145 mem_bottom_track_25\.ccff_tail
*146 mem_bottom_track_25\.mem_out\[0\]
*147 mem_bottom_track_25\.mem_out\[1\]
*148 mem_bottom_track_3\.ccff_tail
*149 mem_bottom_track_3\.mem_out\[0\]
*150 mem_bottom_track_3\.mem_out\[1\]
*151 mem_bottom_track_33\.mem_out\[0\]
*152 mem_bottom_track_5\.ccff_tail
*153 mem_bottom_track_5\.mem_out\[0\]
*154 mem_bottom_track_5\.mem_out\[1\]
*155 mem_bottom_track_9\.mem_out\[0\]
*156 mem_bottom_track_9\.mem_out\[1\]
*157 mem_right_track_0\.ccff_head
*158 mem_right_track_0\.ccff_tail
*159 mem_right_track_0\.mem_out\[0\]
*160 mem_right_track_0\.mem_out\[1\]
*161 mem_right_track_10\.ccff_head
*162 mem_right_track_10\.ccff_tail
*163 mem_right_track_10\.mem_out\[0\]
*164 mem_right_track_10\.mem_out\[1\]
*165 mem_right_track_12\.ccff_tail
*166 mem_right_track_12\.mem_out\[0\]
*167 mem_right_track_12\.mem_out\[1\]
*168 mem_right_track_14\.ccff_tail
*169 mem_right_track_14\.mem_out\[0\]
*170 mem_right_track_14\.mem_out\[1\]
*171 mem_right_track_16\.ccff_tail
*172 mem_right_track_16\.mem_out\[0\]
*173 mem_right_track_18\.ccff_tail
*174 mem_right_track_18\.mem_out\[0\]
*175 mem_right_track_2\.ccff_tail
*176 mem_right_track_2\.mem_out\[0\]
*177 mem_right_track_2\.mem_out\[1\]
*178 mem_right_track_20\.ccff_tail
*179 mem_right_track_20\.mem_out\[0\]
*180 mem_right_track_22\.ccff_tail
*181 mem_right_track_22\.mem_out\[0\]
*182 mem_right_track_24\.ccff_tail
*183 mem_right_track_24\.mem_out\[0\]
*184 mem_right_track_24\.mem_out\[1\]
*185 mem_right_track_26\.ccff_tail
*186 mem_right_track_26\.mem_out\[0\]
*187 mem_right_track_28\.ccff_tail
*188 mem_right_track_28\.mem_out\[0\]
*189 mem_right_track_30\.ccff_tail
*190 mem_right_track_30\.mem_out\[0\]
*191 mem_right_track_32\.ccff_tail
*192 mem_right_track_32\.mem_out\[0\]
*193 mem_right_track_34\.ccff_tail
*194 mem_right_track_34\.mem_out\[0\]
*195 mem_right_track_36\.mem_out\[0\]
*196 mem_right_track_4\.ccff_tail
*197 mem_right_track_4\.mem_out\[0\]
*198 mem_right_track_4\.mem_out\[1\]
*199 mem_right_track_6\.ccff_tail
*200 mem_right_track_6\.mem_out\[0\]
*201 mem_right_track_6\.mem_out\[1\]
*202 mem_right_track_8\.mem_out\[0\]
*203 mem_right_track_8\.mem_out\[1\]
*204 mem_top_track_0\.ccff_tail
*205 mem_top_track_0\.mem_out\[0\]
*206 mem_top_track_0\.mem_out\[1\]
*207 mem_top_track_16\.ccff_head
*208 mem_top_track_16\.ccff_tail
*209 mem_top_track_16\.mem_out\[0\]
*210 mem_top_track_16\.mem_out\[1\]
*211 mem_top_track_2\.ccff_tail
*212 mem_top_track_2\.mem_out\[0\]
*213 mem_top_track_2\.mem_out\[1\]
*214 mem_top_track_24\.ccff_tail
*215 mem_top_track_24\.mem_out\[0\]
*216 mem_top_track_24\.mem_out\[1\]
*217 mem_top_track_32\.mem_out\[0\]
*218 mem_top_track_32\.mem_out\[1\]
*219 mem_top_track_4\.ccff_tail
*220 mem_top_track_4\.mem_out\[0\]
*221 mem_top_track_4\.mem_out\[1\]
*222 mem_top_track_8\.mem_out\[0\]
*223 mem_top_track_8\.mem_out\[1\]
*224 mux_bottom_track_1\.out
*225 mux_bottom_track_1\.sky130_fd_sc_hd__mux2_1_0_X
*226 mux_bottom_track_1\.sky130_fd_sc_hd__mux2_1_1_X
*227 mux_bottom_track_1\.sky130_fd_sc_hd__mux2_1_2_X
*228 mux_bottom_track_1\.sky130_fd_sc_hd__mux2_1_3_X
*229 mux_bottom_track_1\.sky130_fd_sc_hd__mux2_1_4_X
*230 mux_bottom_track_1\.sky130_fd_sc_hd__mux2_1_5_X
*231 mux_bottom_track_17\.out
*232 mux_bottom_track_17\.sky130_fd_sc_hd__mux2_1_0_X
*233 mux_bottom_track_17\.sky130_fd_sc_hd__mux2_1_1_X
*234 mux_bottom_track_17\.sky130_fd_sc_hd__mux2_1_2_X
*235 mux_bottom_track_17\.sky130_fd_sc_hd__mux2_1_3_X
*236 mux_bottom_track_17\.sky130_fd_sc_hd__mux2_1_4_X
*237 mux_bottom_track_25\.out
*238 mux_bottom_track_25\.sky130_fd_sc_hd__mux2_1_0_X
*239 mux_bottom_track_25\.sky130_fd_sc_hd__mux2_1_1_X
*240 mux_bottom_track_25\.sky130_fd_sc_hd__mux2_1_2_X
*241 mux_bottom_track_25\.sky130_fd_sc_hd__mux2_1_3_X
*242 mux_bottom_track_25\.sky130_fd_sc_hd__mux2_1_4_X
*243 mux_bottom_track_3\.out
*244 mux_bottom_track_3\.sky130_fd_sc_hd__mux2_1_0_X
*245 mux_bottom_track_3\.sky130_fd_sc_hd__mux2_1_1_X
*246 mux_bottom_track_3\.sky130_fd_sc_hd__mux2_1_2_X
*247 mux_bottom_track_3\.sky130_fd_sc_hd__mux2_1_3_X
*248 mux_bottom_track_3\.sky130_fd_sc_hd__mux2_1_4_X
*249 mux_bottom_track_33\.out
*250 mux_bottom_track_33\.sky130_fd_sc_hd__mux2_1_0_X
*251 mux_bottom_track_33\.sky130_fd_sc_hd__mux2_1_1_X
*252 mux_bottom_track_33\.sky130_fd_sc_hd__mux2_1_2_X
*253 mux_bottom_track_5\.out
*254 mux_bottom_track_5\.sky130_fd_sc_hd__mux2_1_0_X
*255 mux_bottom_track_5\.sky130_fd_sc_hd__mux2_1_1_X
*256 mux_bottom_track_5\.sky130_fd_sc_hd__mux2_1_2_X
*257 mux_bottom_track_5\.sky130_fd_sc_hd__mux2_1_3_X
*258 mux_bottom_track_5\.sky130_fd_sc_hd__mux2_1_4_X
*259 mux_bottom_track_5\.sky130_fd_sc_hd__mux2_1_5_X
*260 mux_bottom_track_9\.out
*261 mux_bottom_track_9\.sky130_fd_sc_hd__mux2_1_0_X
*262 mux_bottom_track_9\.sky130_fd_sc_hd__mux2_1_1_X
*263 mux_bottom_track_9\.sky130_fd_sc_hd__mux2_1_2_X
*264 mux_bottom_track_9\.sky130_fd_sc_hd__mux2_1_3_X
*265 mux_bottom_track_9\.sky130_fd_sc_hd__mux2_1_4_X
*266 mux_bottom_track_9\.sky130_fd_sc_hd__mux2_1_5_X
*267 mux_right_track_0\.out
*268 mux_right_track_0\.sky130_fd_sc_hd__mux2_1_0_X
*269 mux_right_track_0\.sky130_fd_sc_hd__mux2_1_1_X
*270 mux_right_track_0\.sky130_fd_sc_hd__mux2_1_2_X
*271 mux_right_track_0\.sky130_fd_sc_hd__mux2_1_3_X
*272 mux_right_track_0\.sky130_fd_sc_hd__mux2_1_4_X
*273 mux_right_track_0\.sky130_fd_sc_hd__mux2_1_5_X
*274 mux_right_track_10\.out
*275 mux_right_track_10\.sky130_fd_sc_hd__mux2_1_0_X
*276 mux_right_track_10\.sky130_fd_sc_hd__mux2_1_1_X
*277 mux_right_track_10\.sky130_fd_sc_hd__mux2_1_2_X
*278 mux_right_track_10\.sky130_fd_sc_hd__mux2_1_3_X
*279 mux_right_track_12\.out
*280 mux_right_track_12\.sky130_fd_sc_hd__mux2_1_0_X
*281 mux_right_track_12\.sky130_fd_sc_hd__mux2_1_1_X
*282 mux_right_track_12\.sky130_fd_sc_hd__mux2_1_2_X
*283 mux_right_track_12\.sky130_fd_sc_hd__mux2_1_3_X
*284 mux_right_track_14\.out
*285 mux_right_track_14\.sky130_fd_sc_hd__mux2_1_0_X
*286 mux_right_track_14\.sky130_fd_sc_hd__mux2_1_1_X
*287 mux_right_track_14\.sky130_fd_sc_hd__mux2_1_2_X
*288 mux_right_track_14\.sky130_fd_sc_hd__mux2_1_3_X
*289 mux_right_track_16\.out
*290 mux_right_track_16\.sky130_fd_sc_hd__mux2_1_0_X
*291 mux_right_track_16\.sky130_fd_sc_hd__mux2_1_1_X
*292 mux_right_track_16\.sky130_fd_sc_hd__mux2_1_2_X
*293 mux_right_track_18\.out
*294 mux_right_track_18\.sky130_fd_sc_hd__mux2_1_0_X
*295 mux_right_track_18\.sky130_fd_sc_hd__mux2_1_1_X
*296 mux_right_track_18\.sky130_fd_sc_hd__mux2_1_2_X
*297 mux_right_track_2\.out
*298 mux_right_track_2\.sky130_fd_sc_hd__mux2_1_0_X
*299 mux_right_track_2\.sky130_fd_sc_hd__mux2_1_1_X
*300 mux_right_track_2\.sky130_fd_sc_hd__mux2_1_2_X
*301 mux_right_track_2\.sky130_fd_sc_hd__mux2_1_3_X
*302 mux_right_track_2\.sky130_fd_sc_hd__mux2_1_4_X
*303 mux_right_track_2\.sky130_fd_sc_hd__mux2_1_5_X
*304 mux_right_track_2\.sky130_fd_sc_hd__mux2_1_6_X
*305 mux_right_track_20\.out
*306 mux_right_track_20\.sky130_fd_sc_hd__mux2_1_0_X
*307 mux_right_track_20\.sky130_fd_sc_hd__mux2_1_1_X
*308 mux_right_track_20\.sky130_fd_sc_hd__mux2_1_2_X
*309 mux_right_track_22\.out
*310 mux_right_track_22\.sky130_fd_sc_hd__mux2_1_0_X
*311 mux_right_track_22\.sky130_fd_sc_hd__mux2_1_1_X
*312 mux_right_track_22\.sky130_fd_sc_hd__mux2_1_2_X
*313 mux_right_track_24\.out
*314 mux_right_track_24\.sky130_fd_sc_hd__mux2_1_0_X
*315 mux_right_track_24\.sky130_fd_sc_hd__mux2_1_1_X
*316 mux_right_track_24\.sky130_fd_sc_hd__mux2_1_2_X
*317 mux_right_track_24\.sky130_fd_sc_hd__mux2_1_3_X
*318 mux_right_track_26\.out
*319 mux_right_track_26\.sky130_fd_sc_hd__mux2_1_0_X
*320 mux_right_track_26\.sky130_fd_sc_hd__mux2_1_1_X
*321 mux_right_track_28\.out
*322 mux_right_track_28\.sky130_fd_sc_hd__mux2_1_0_X
*323 mux_right_track_28\.sky130_fd_sc_hd__mux2_1_1_X
*324 mux_right_track_30\.out
*325 mux_right_track_30\.sky130_fd_sc_hd__mux2_1_0_X
*326 mux_right_track_30\.sky130_fd_sc_hd__mux2_1_1_X
*327 mux_right_track_32\.out
*328 mux_right_track_32\.sky130_fd_sc_hd__mux2_1_0_X
*329 mux_right_track_32\.sky130_fd_sc_hd__mux2_1_1_X
*330 mux_right_track_34\.out
*331 mux_right_track_34\.sky130_fd_sc_hd__mux2_1_0_X
*332 mux_right_track_34\.sky130_fd_sc_hd__mux2_1_1_X
*333 mux_right_track_36\.out
*334 mux_right_track_36\.sky130_fd_sc_hd__mux2_1_0_X
*335 mux_right_track_36\.sky130_fd_sc_hd__mux2_1_1_X
*336 mux_right_track_4\.out
*337 mux_right_track_4\.sky130_fd_sc_hd__mux2_1_0_X
*338 mux_right_track_4\.sky130_fd_sc_hd__mux2_1_1_X
*339 mux_right_track_4\.sky130_fd_sc_hd__mux2_1_2_X
*340 mux_right_track_4\.sky130_fd_sc_hd__mux2_1_3_X
*341 mux_right_track_4\.sky130_fd_sc_hd__mux2_1_4_X
*342 mux_right_track_4\.sky130_fd_sc_hd__mux2_1_5_X
*343 mux_right_track_4\.sky130_fd_sc_hd__mux2_1_6_X
*344 mux_right_track_6\.out
*345 mux_right_track_6\.sky130_fd_sc_hd__mux2_1_0_X
*346 mux_right_track_6\.sky130_fd_sc_hd__mux2_1_1_X
*347 mux_right_track_6\.sky130_fd_sc_hd__mux2_1_2_X
*348 mux_right_track_6\.sky130_fd_sc_hd__mux2_1_3_X
*349 mux_right_track_6\.sky130_fd_sc_hd__mux2_1_4_X
*350 mux_right_track_6\.sky130_fd_sc_hd__mux2_1_5_X
*351 mux_right_track_6\.sky130_fd_sc_hd__mux2_1_6_X
*352 mux_right_track_8\.out
*353 mux_right_track_8\.sky130_fd_sc_hd__mux2_1_0_X
*354 mux_right_track_8\.sky130_fd_sc_hd__mux2_1_1_X
*355 mux_right_track_8\.sky130_fd_sc_hd__mux2_1_2_X
*356 mux_right_track_8\.sky130_fd_sc_hd__mux2_1_3_X
*357 mux_top_track_0\.out
*358 mux_top_track_0\.sky130_fd_sc_hd__mux2_1_0_X
*359 mux_top_track_0\.sky130_fd_sc_hd__mux2_1_1_X
*360 mux_top_track_0\.sky130_fd_sc_hd__mux2_1_2_X
*361 mux_top_track_0\.sky130_fd_sc_hd__mux2_1_3_X
*362 mux_top_track_0\.sky130_fd_sc_hd__mux2_1_4_X
*363 mux_top_track_0\.sky130_fd_sc_hd__mux2_1_5_X
*364 mux_top_track_16\.out
*365 mux_top_track_16\.sky130_fd_sc_hd__mux2_1_0_X
*366 mux_top_track_16\.sky130_fd_sc_hd__mux2_1_1_X
*367 mux_top_track_16\.sky130_fd_sc_hd__mux2_1_2_X
*368 mux_top_track_16\.sky130_fd_sc_hd__mux2_1_3_X
*369 mux_top_track_16\.sky130_fd_sc_hd__mux2_1_4_X
*370 mux_top_track_2\.out
*371 mux_top_track_2\.sky130_fd_sc_hd__mux2_1_0_X
*372 mux_top_track_2\.sky130_fd_sc_hd__mux2_1_1_X
*373 mux_top_track_2\.sky130_fd_sc_hd__mux2_1_2_X
*374 mux_top_track_2\.sky130_fd_sc_hd__mux2_1_3_X
*375 mux_top_track_2\.sky130_fd_sc_hd__mux2_1_4_X
*376 mux_top_track_24\.out
*377 mux_top_track_24\.sky130_fd_sc_hd__mux2_1_0_X
*378 mux_top_track_24\.sky130_fd_sc_hd__mux2_1_1_X
*379 mux_top_track_24\.sky130_fd_sc_hd__mux2_1_2_X
*380 mux_top_track_24\.sky130_fd_sc_hd__mux2_1_3_X
*381 mux_top_track_32\.out
*382 mux_top_track_32\.sky130_fd_sc_hd__mux2_1_0_X
*383 mux_top_track_32\.sky130_fd_sc_hd__mux2_1_1_X
*384 mux_top_track_32\.sky130_fd_sc_hd__mux2_1_2_X
*385 mux_top_track_32\.sky130_fd_sc_hd__mux2_1_3_X
*386 mux_top_track_4\.out
*387 mux_top_track_4\.sky130_fd_sc_hd__mux2_1_0_X
*388 mux_top_track_4\.sky130_fd_sc_hd__mux2_1_1_X
*389 mux_top_track_4\.sky130_fd_sc_hd__mux2_1_2_X
*390 mux_top_track_4\.sky130_fd_sc_hd__mux2_1_3_X
*391 mux_top_track_4\.sky130_fd_sc_hd__mux2_1_4_X
*392 mux_top_track_4\.sky130_fd_sc_hd__mux2_1_5_X
*393 mux_top_track_8\.out
*394 mux_top_track_8\.sky130_fd_sc_hd__mux2_1_0_X
*395 mux_top_track_8\.sky130_fd_sc_hd__mux2_1_1_X
*396 mux_top_track_8\.sky130_fd_sc_hd__mux2_1_2_X
*397 mux_top_track_8\.sky130_fd_sc_hd__mux2_1_3_X
*398 mux_top_track_8\.sky130_fd_sc_hd__mux2_1_4_X
*399 mux_top_track_8\.sky130_fd_sc_hd__mux2_1_5_X
*400 net1
*401 net10
*402 net100
*403 net101
*404 net102
*405 net103
*406 net104
*407 net105
*408 net106
*409 net107
*410 net108
*411 net109
*412 net11
*413 net110
*414 net111
*415 net112
*416 net113
*417 net114
*418 net115
*419 net116
*420 net117
*421 net118
*422 net119
*423 net12
*424 net120
*425 net121
*426 net122
*427 net123
*428 net124
*429 net125
*430 net126
*431 net127
*432 net128
*433 net129
*434 net13
*435 net130
*436 net131
*437 net132
*438 net133
*439 net134
*440 net135
*441 net136
*442 net137
*443 net138
*444 net139
*445 net14
*446 net140
*447 net141
*448 net142
*449 net143
*450 net144
*451 net145
*452 net146
*453 net147
*454 net148
*455 net149
*456 net15
*457 net150
*458 net151
*459 net152
*460 net153
*461 net154
*462 net155
*463 net156
*464 net157
*465 net158
*466 net159
*467 net16
*468 net160
*469 net161
*470 net162
*471 net163
*472 net164
*473 net165
*474 net17
*475 net18
*476 net19
*477 net2
*478 net20
*479 net21
*480 net22
*481 net23
*482 net24
*483 net25
*484 net26
*485 net27
*486 net28
*487 net29
*488 net3
*489 net30
*490 net31
*491 net32
*492 net33
*493 net34
*494 net35
*495 net36
*496 net37
*497 net38
*498 net39
*499 net4
*500 net40
*501 net41
*502 net42
*503 net43
*504 net44
*505 net45
*506 net46
*507 net47
*508 net48
*509 net49
*510 net5
*511 net50
*512 net51
*513 net52
*514 net53
*515 net54
*516 net55
*517 net56
*518 net57
*519 net58
*520 net59
*521 net6
*522 net60
*523 net61
*524 net62
*525 net63
*526 net64
*527 net65
*528 net66
*529 net67
*530 net68
*531 net69
*532 net7
*533 net70
*534 net71
*535 net72
*536 net73
*537 net74
*538 net75
*539 net76
*540 net77
*541 net78
*542 net79
*543 net8
*544 net80
*545 net81
*546 net82
*547 net83
*548 net84
*549 net85
*550 net86
*551 net87
*552 net88
*553 net89
*554 net9
*555 net90
*556 net91
*557 net92
*558 net93
*559 net94
*560 net95
*561 net96
*562 net97
*563 net98
*564 net99
*565 ANTENNA__085__A
*566 ANTENNA__089__A
*567 ANTENNA__091__A
*568 ANTENNA__092__A
*569 ANTENNA__093__A
*570 ANTENNA__095__A
*571 ANTENNA__096__A
*572 ANTENNA__097__A
*573 ANTENNA__099__A
*574 ANTENNA__100__A
*575 ANTENNA__101__A
*576 ANTENNA__103__A
*577 ANTENNA__104__A
*578 ANTENNA__105__A
*579 ANTENNA__109__A
*580 ANTENNA__111__A
*581 ANTENNA__112__A
*582 ANTENNA__113__A
*583 ANTENNA__115__A
*584 ANTENNA__116__A
*585 ANTENNA__117__A
*586 ANTENNA__119__A
*587 ANTENNA__120__A
*588 ANTENNA__121__A
*589 ANTENNA__123__A
*590 ANTENNA__124__A
*591 ANTENNA_input10_A
*592 ANTENNA_input11_A
*593 ANTENNA_input12_A
*594 ANTENNA_input13_A
*595 ANTENNA_input14_A
*596 ANTENNA_input15_A
*597 ANTENNA_input16_A
*598 ANTENNA_input17_A
*599 ANTENNA_input18_A
*600 ANTENNA_input19_A
*601 ANTENNA_input1_A
*602 ANTENNA_input20_A
*603 ANTENNA_input21_A
*604 ANTENNA_input22_A
*605 ANTENNA_input23_A
*606 ANTENNA_input24_A
*607 ANTENNA_input25_A
*608 ANTENNA_input26_A
*609 ANTENNA_input27_A
*610 ANTENNA_input28_A
*611 ANTENNA_input29_A
*612 ANTENNA_input2_A
*613 ANTENNA_input30_A
*614 ANTENNA_input31_A
*615 ANTENNA_input32_A
*616 ANTENNA_input33_A
*617 ANTENNA_input34_A
*618 ANTENNA_input35_A
*619 ANTENNA_input36_A
*620 ANTENNA_input37_A
*621 ANTENNA_input38_A
*622 ANTENNA_input39_A
*623 ANTENNA_input3_A
*624 ANTENNA_input40_A
*625 ANTENNA_input41_A
*626 ANTENNA_input42_A
*627 ANTENNA_input43_A
*628 ANTENNA_input44_A
*629 ANTENNA_input45_A
*630 ANTENNA_input46_A
*631 ANTENNA_input47_A
*632 ANTENNA_input48_A
*633 ANTENNA_input49_A
*634 ANTENNA_input4_A
*635 ANTENNA_input50_A
*636 ANTENNA_input51_A
*637 ANTENNA_input52_A
*638 ANTENNA_input53_A
*639 ANTENNA_input54_A
*640 ANTENNA_input55_A
*641 ANTENNA_input56_A
*642 ANTENNA_input57_A
*643 ANTENNA_input58_A
*644 ANTENNA_input59_A
*645 ANTENNA_input5_A
*646 ANTENNA_input60_A
*647 ANTENNA_input61_A
*648 ANTENNA_input62_A
*649 ANTENNA_input63_A
*650 ANTENNA_input64_A
*651 ANTENNA_input65_A
*652 ANTENNA_input66_A
*653 ANTENNA_input67_A
*654 ANTENNA_input68_A
*655 ANTENNA_input69_A
*656 ANTENNA_input6_A
*657 ANTENNA_input70_A
*658 ANTENNA_input71_A
*659 ANTENNA_input7_A
*660 ANTENNA_input8_A
*661 ANTENNA_input9_A
*662 ANTENNA_mem_bottom_track_1\.sky130_fd_sc_hd__dfxtp_1_0__CLK
*663 ANTENNA_mem_bottom_track_1\.sky130_fd_sc_hd__dfxtp_1_1__CLK
*664 ANTENNA_mem_bottom_track_1\.sky130_fd_sc_hd__dfxtp_1_2__CLK
*665 ANTENNA_mem_bottom_track_17\.sky130_fd_sc_hd__dfxtp_1_0__CLK
*666 ANTENNA_mem_bottom_track_17\.sky130_fd_sc_hd__dfxtp_1_1__CLK
*667 ANTENNA_mem_bottom_track_17\.sky130_fd_sc_hd__dfxtp_1_2__CLK
*668 ANTENNA_mem_bottom_track_25\.sky130_fd_sc_hd__dfxtp_1_0__CLK
*669 ANTENNA_mem_bottom_track_25\.sky130_fd_sc_hd__dfxtp_1_1__CLK
*670 ANTENNA_mem_bottom_track_25\.sky130_fd_sc_hd__dfxtp_1_2__CLK
*671 ANTENNA_mem_bottom_track_3\.sky130_fd_sc_hd__dfxtp_1_0__CLK
*672 ANTENNA_mem_bottom_track_3\.sky130_fd_sc_hd__dfxtp_1_1__CLK
*673 ANTENNA_mem_bottom_track_3\.sky130_fd_sc_hd__dfxtp_1_1__D
*674 ANTENNA_mem_bottom_track_3\.sky130_fd_sc_hd__dfxtp_1_2__CLK
*675 ANTENNA_mem_bottom_track_33\.sky130_fd_sc_hd__dfxtp_1_0__CLK
*676 ANTENNA_mem_bottom_track_33\.sky130_fd_sc_hd__dfxtp_1_1__CLK
*677 ANTENNA_mem_bottom_track_5\.sky130_fd_sc_hd__dfxtp_1_0__CLK
*678 ANTENNA_mem_bottom_track_5\.sky130_fd_sc_hd__dfxtp_1_1__CLK
*679 ANTENNA_mem_bottom_track_5\.sky130_fd_sc_hd__dfxtp_1_2__CLK
*680 ANTENNA_mem_bottom_track_9\.sky130_fd_sc_hd__dfxtp_1_0__CLK
*681 ANTENNA_mem_bottom_track_9\.sky130_fd_sc_hd__dfxtp_1_1__CLK
*682 ANTENNA_mem_bottom_track_9\.sky130_fd_sc_hd__dfxtp_1_2__CLK
*683 ANTENNA_mem_right_track_0\.sky130_fd_sc_hd__dfxtp_1_0__CLK
*684 ANTENNA_mem_right_track_0\.sky130_fd_sc_hd__dfxtp_1_1__CLK
*685 ANTENNA_mem_right_track_0\.sky130_fd_sc_hd__dfxtp_1_1__D
*686 ANTENNA_mem_right_track_0\.sky130_fd_sc_hd__dfxtp_1_2__CLK
*687 ANTENNA_mem_right_track_10\.sky130_fd_sc_hd__dfxtp_1_0__CLK
*688 ANTENNA_mem_right_track_10\.sky130_fd_sc_hd__dfxtp_1_1__CLK
*689 ANTENNA_mem_right_track_10\.sky130_fd_sc_hd__dfxtp_1_2__CLK
*690 ANTENNA_mem_right_track_12\.sky130_fd_sc_hd__dfxtp_1_0__CLK
*691 ANTENNA_mem_right_track_12\.sky130_fd_sc_hd__dfxtp_1_1__CLK
*692 ANTENNA_mem_right_track_12\.sky130_fd_sc_hd__dfxtp_1_2__CLK
*693 ANTENNA_mem_right_track_14\.sky130_fd_sc_hd__dfxtp_1_0__CLK
*694 ANTENNA_mem_right_track_14\.sky130_fd_sc_hd__dfxtp_1_1__CLK
*695 ANTENNA_mem_right_track_14\.sky130_fd_sc_hd__dfxtp_1_2__CLK
*696 ANTENNA_mem_right_track_16\.sky130_fd_sc_hd__dfxtp_1_0__CLK
*697 ANTENNA_mem_right_track_16\.sky130_fd_sc_hd__dfxtp_1_1__CLK
*698 ANTENNA_mem_right_track_18\.sky130_fd_sc_hd__dfxtp_1_0__CLK
*699 ANTENNA_mem_right_track_18\.sky130_fd_sc_hd__dfxtp_1_1__CLK
*700 ANTENNA_mem_right_track_2\.sky130_fd_sc_hd__dfxtp_1_0__CLK
*701 ANTENNA_mem_right_track_2\.sky130_fd_sc_hd__dfxtp_1_1__CLK
*702 ANTENNA_mem_right_track_2\.sky130_fd_sc_hd__dfxtp_1_2__CLK
*703 ANTENNA_mem_right_track_20\.sky130_fd_sc_hd__dfxtp_1_0__CLK
*704 ANTENNA_mem_right_track_20\.sky130_fd_sc_hd__dfxtp_1_1__CLK
*705 ANTENNA_mem_right_track_22\.sky130_fd_sc_hd__dfxtp_1_0__CLK
*706 ANTENNA_mem_right_track_22\.sky130_fd_sc_hd__dfxtp_1_1__CLK
*707 ANTENNA_mem_right_track_24\.sky130_fd_sc_hd__dfxtp_1_0__CLK
*708 ANTENNA_mem_right_track_24\.sky130_fd_sc_hd__dfxtp_1_1__CLK
*709 ANTENNA_mem_right_track_24\.sky130_fd_sc_hd__dfxtp_1_2__CLK
*710 ANTENNA_mem_right_track_26\.sky130_fd_sc_hd__dfxtp_1_0__CLK
*711 ANTENNA_mem_right_track_26\.sky130_fd_sc_hd__dfxtp_1_1__CLK
*712 ANTENNA_mem_right_track_28\.sky130_fd_sc_hd__dfxtp_1_0__CLK
*713 ANTENNA_mem_right_track_28\.sky130_fd_sc_hd__dfxtp_1_1__CLK
*714 ANTENNA_mem_right_track_30\.sky130_fd_sc_hd__dfxtp_1_0__CLK
*715 ANTENNA_mem_right_track_30\.sky130_fd_sc_hd__dfxtp_1_1__CLK
*716 ANTENNA_mem_right_track_32\.sky130_fd_sc_hd__dfxtp_1_0__CLK
*717 ANTENNA_mem_right_track_32\.sky130_fd_sc_hd__dfxtp_1_1__CLK
*718 ANTENNA_mem_right_track_34\.sky130_fd_sc_hd__dfxtp_1_0__CLK
*719 ANTENNA_mem_right_track_34\.sky130_fd_sc_hd__dfxtp_1_1__CLK
*720 ANTENNA_mem_right_track_36\.sky130_fd_sc_hd__dfxtp_1_0__CLK
*721 ANTENNA_mem_right_track_36\.sky130_fd_sc_hd__dfxtp_1_1__CLK
*722 ANTENNA_mem_right_track_4\.sky130_fd_sc_hd__dfxtp_1_0__CLK
*723 ANTENNA_mem_right_track_4\.sky130_fd_sc_hd__dfxtp_1_1__CLK
*724 ANTENNA_mem_right_track_4\.sky130_fd_sc_hd__dfxtp_1_2__CLK
*725 ANTENNA_mem_right_track_6\.sky130_fd_sc_hd__dfxtp_1_0__CLK
*726 ANTENNA_mem_right_track_6\.sky130_fd_sc_hd__dfxtp_1_1__CLK
*727 ANTENNA_mem_right_track_6\.sky130_fd_sc_hd__dfxtp_1_2__CLK
*728 ANTENNA_mem_right_track_8\.sky130_fd_sc_hd__dfxtp_1_0__CLK
*729 ANTENNA_mem_right_track_8\.sky130_fd_sc_hd__dfxtp_1_1__CLK
*730 ANTENNA_mem_right_track_8\.sky130_fd_sc_hd__dfxtp_1_2__CLK
*731 ANTENNA_mem_top_track_0\.sky130_fd_sc_hd__dfxtp_1_0__CLK
*732 ANTENNA_mem_top_track_0\.sky130_fd_sc_hd__dfxtp_1_1__CLK
*733 ANTENNA_mem_top_track_0\.sky130_fd_sc_hd__dfxtp_1_2__CLK
*734 ANTENNA_mem_top_track_16\.sky130_fd_sc_hd__dfxtp_1_0__CLK
*735 ANTENNA_mem_top_track_16\.sky130_fd_sc_hd__dfxtp_1_1__CLK
*736 ANTENNA_mem_top_track_16\.sky130_fd_sc_hd__dfxtp_1_2__CLK
*737 ANTENNA_mem_top_track_2\.sky130_fd_sc_hd__dfxtp_1_0__CLK
*738 ANTENNA_mem_top_track_2\.sky130_fd_sc_hd__dfxtp_1_1__CLK
*739 ANTENNA_mem_top_track_2\.sky130_fd_sc_hd__dfxtp_1_2__CLK
*740 ANTENNA_mem_top_track_24\.sky130_fd_sc_hd__dfxtp_1_0__CLK
*741 ANTENNA_mem_top_track_24\.sky130_fd_sc_hd__dfxtp_1_1__CLK
*742 ANTENNA_mem_top_track_24\.sky130_fd_sc_hd__dfxtp_1_2__CLK
*743 ANTENNA_mem_top_track_24\.sky130_fd_sc_hd__dfxtp_1_2__D
*744 ANTENNA_mem_top_track_32\.sky130_fd_sc_hd__dfxtp_1_0__CLK
*745 ANTENNA_mem_top_track_32\.sky130_fd_sc_hd__dfxtp_1_1__CLK
*746 ANTENNA_mem_top_track_32\.sky130_fd_sc_hd__dfxtp_1_2__CLK
*747 ANTENNA_mem_top_track_4\.sky130_fd_sc_hd__dfxtp_1_0__CLK
*748 ANTENNA_mem_top_track_4\.sky130_fd_sc_hd__dfxtp_1_1__CLK
*749 ANTENNA_mem_top_track_4\.sky130_fd_sc_hd__dfxtp_1_2__CLK
*750 ANTENNA_mem_top_track_8\.sky130_fd_sc_hd__dfxtp_1_0__CLK
*751 ANTENNA_mem_top_track_8\.sky130_fd_sc_hd__dfxtp_1_1__CLK
*752 ANTENNA_mem_top_track_8\.sky130_fd_sc_hd__dfxtp_1_2__CLK
*753 ANTENNA_mux_bottom_track_1\.mux_l1_in_0__A0
*754 ANTENNA_mux_bottom_track_1\.mux_l1_in_0__A1
*755 ANTENNA_mux_bottom_track_17\.mux_l1_in_0__A0
*756 ANTENNA_mux_bottom_track_17\.mux_l1_in_0__A1
*757 ANTENNA_mux_bottom_track_25\.mux_l1_in_0__A0
*758 ANTENNA_mux_bottom_track_25\.mux_l1_in_0__A1
*759 ANTENNA_mux_bottom_track_3\.mux_l1_in_0__A0
*760 ANTENNA_mux_bottom_track_3\.mux_l1_in_0__A1
*761 ANTENNA_mux_bottom_track_3\.mux_l1_in_0__S
*762 ANTENNA_mux_bottom_track_3\.mux_l1_in_1__S
*763 ANTENNA_mux_bottom_track_33\.mux_l1_in_0__A1
*764 ANTENNA_mux_bottom_track_33\.mux_l2_in_0__S
*765 ANTENNA_mux_bottom_track_5\.mux_l1_in_0__A0
*766 ANTENNA_mux_bottom_track_5\.mux_l1_in_0__A1
*767 ANTENNA_mux_bottom_track_9\.mux_l1_in_0__A0
*768 ANTENNA_mux_bottom_track_9\.mux_l1_in_0__A1
*769 ANTENNA_mux_right_track_0\.mux_l1_in_0__A0
*770 ANTENNA_mux_right_track_0\.mux_l1_in_0__A1
*771 ANTENNA_mux_right_track_0\.mux_l1_in_0__S
*772 ANTENNA_mux_right_track_0\.mux_l1_in_1__A0
*773 ANTENNA_mux_right_track_0\.mux_l1_in_1__A1
*774 ANTENNA_mux_right_track_0\.mux_l1_in_1__S
*775 ANTENNA_mux_right_track_0\.mux_l1_in_2__A0
*776 ANTENNA_mux_right_track_0\.mux_l1_in_2__S
*777 ANTENNA_mux_right_track_10\.mux_l1_in_0__A1
*778 ANTENNA_mux_right_track_10\.mux_l2_in_0__A0
*779 ANTENNA_mux_right_track_10\.mux_l2_in_1__A1
*780 ANTENNA_mux_right_track_10\.sky130_fd_sc_hd__buf_4_0__A
*781 ANTENNA_mux_right_track_12\.mux_l1_in_0__A1
*782 ANTENNA_mux_right_track_12\.mux_l2_in_0__A0
*783 ANTENNA_mux_right_track_12\.mux_l2_in_1__A1
*784 ANTENNA_mux_right_track_14\.mux_l1_in_0__A1
*785 ANTENNA_mux_right_track_14\.mux_l2_in_0__A0
*786 ANTENNA_mux_right_track_14\.mux_l2_in_1__A1
*787 ANTENNA_mux_right_track_16\.mux_l1_in_0__A0
*788 ANTENNA_mux_right_track_16\.mux_l1_in_0__A1
*789 ANTENNA_mux_right_track_16\.mux_l1_in_1__A1
*790 ANTENNA_mux_right_track_18\.mux_l1_in_0__A1
*791 ANTENNA_mux_right_track_18\.mux_l1_in_1__A1
*792 ANTENNA_mux_right_track_2\.mux_l1_in_0__A0
*793 ANTENNA_mux_right_track_2\.mux_l1_in_1__A0
*794 ANTENNA_mux_right_track_2\.mux_l1_in_1__A1
*795 ANTENNA_mux_right_track_2\.mux_l1_in_2__A0
*796 ANTENNA_mux_right_track_2\.mux_l1_in_3__A1
*797 ANTENNA_mux_right_track_20\.mux_l1_in_0__A1
*798 ANTENNA_mux_right_track_20\.mux_l1_in_1__A1
*799 ANTENNA_mux_right_track_22\.mux_l1_in_0__A0
*800 ANTENNA_mux_right_track_22\.mux_l1_in_0__A1
*801 ANTENNA_mux_right_track_22\.mux_l1_in_1__A1
*802 ANTENNA_mux_right_track_24\.mux_l1_in_0__A0
*803 ANTENNA_mux_right_track_24\.mux_l1_in_0__A1
*804 ANTENNA_mux_right_track_26\.mux_l1_in_0__A1
*805 ANTENNA_mux_right_track_28\.mux_l1_in_0__A1
*806 ANTENNA_mux_right_track_30\.mux_l1_in_0__A1
*807 ANTENNA_mux_right_track_32\.mux_l1_in_0__A1
*808 ANTENNA_mux_right_track_36\.sky130_fd_sc_hd__buf_4_0__A
*809 ANTENNA_mux_right_track_4\.mux_l1_in_0__A0
*810 ANTENNA_mux_right_track_4\.mux_l1_in_1__A0
*811 ANTENNA_mux_right_track_4\.mux_l1_in_1__A1
*812 ANTENNA_mux_right_track_4\.mux_l1_in_2__A1
*813 ANTENNA_mux_right_track_4\.mux_l1_in_3__A1
*814 ANTENNA_mux_right_track_6\.mux_l1_in_0__A0
*815 ANTENNA_mux_right_track_6\.mux_l1_in_1__A0
*816 ANTENNA_mux_right_track_6\.mux_l1_in_1__A1
*817 ANTENNA_mux_right_track_6\.mux_l1_in_2__A0
*818 ANTENNA_mux_right_track_6\.mux_l1_in_3__A1
*819 ANTENNA_mux_right_track_8\.mux_l1_in_0__A0
*820 ANTENNA_mux_right_track_8\.mux_l2_in_0__A0
*821 ANTENNA_mux_right_track_8\.mux_l2_in_1__A1
*822 ANTENNA_mux_top_track_0\.mux_l1_in_0__A1
*823 ANTENNA_mux_top_track_0\.mux_l1_in_2__A0
*824 ANTENNA_mux_top_track_0\.mux_l1_in_2__A1
*825 ANTENNA_mux_top_track_16\.mux_l1_in_1__A0
*826 ANTENNA_mux_top_track_16\.mux_l2_in_1__A1
*827 ANTENNA_mux_top_track_2\.mux_l1_in_1__A0
*828 ANTENNA_mux_top_track_2\.mux_l2_in_1__A1
*829 ANTENNA_mux_top_track_24\.mux_l2_in_0__A0
*830 ANTENNA_mux_top_track_24\.mux_l2_in_0__S
*831 ANTENNA_mux_top_track_24\.mux_l2_in_1__S
*832 ANTENNA_mux_top_track_32\.mux_l2_in_1__A1
*833 ANTENNA_mux_top_track_4\.mux_l1_in_0__A1
*834 ANTENNA_mux_top_track_4\.mux_l1_in_2__A0
*835 ANTENNA_mux_top_track_4\.mux_l1_in_2__A1
*836 ANTENNA_mux_top_track_8\.mux_l1_in_0__A1
*837 ANTENNA_mux_top_track_8\.mux_l1_in_2__A0
*838 ANTENNA_mux_top_track_8\.mux_l1_in_2__A1
*839 ANTENNA_output72_A
*840 ANTENNA_prog_clk_0_FTB00_A
*841 FILLER_0_105
*842 FILLER_0_110
*843 FILLER_0_117
*844 FILLER_0_123
*845 FILLER_0_129
*846 FILLER_0_13
*847 FILLER_0_135
*848 FILLER_0_139
*849 FILLER_0_145
*850 FILLER_0_151
*851 FILLER_0_157
*852 FILLER_0_163
*853 FILLER_0_167
*854 FILLER_0_173
*855 FILLER_0_179
*856 FILLER_0_185
*857 FILLER_0_19
*858 FILLER_0_191
*859 FILLER_0_195
*860 FILLER_0_201
*861 FILLER_0_207
*862 FILLER_0_213
*863 FILLER_0_219
*864 FILLER_0_24
*865 FILLER_0_33
*866 FILLER_0_45
*867 FILLER_0_49
*868 FILLER_0_54
*869 FILLER_0_57
*870 FILLER_0_63
*871 FILLER_0_68
*872 FILLER_0_75
*873 FILLER_0_81
*874 FILLER_0_89
*875 FILLER_0_93
*876 FILLER_0_99
*877 FILLER_10_104
*878 FILLER_10_115
*879 FILLER_10_119
*880 FILLER_10_129
*881 FILLER_10_134
*882 FILLER_10_138
*883 FILLER_10_15
*884 FILLER_10_150
*885 FILLER_10_156
*886 FILLER_10_160
*887 FILLER_10_165
*888 FILLER_10_177
*889 FILLER_10_182
*890 FILLER_10_193
*891 FILLER_10_200