*SPEF "ieee 1481-1999"
*DESIGN "sb_0__1_"
*DATE "11:11:11 Fri 11 11, 1111"
*VENDOR "OpenRCX"
*PROGRAM "Parallel Extraction"
*VERSION "1.0"
*DESIGN_FLOW "NAME_SCOPE LOCAL" "PIN_CAP NONE"
*DIVIDER /
*DELIMITER :
*BUS_DELIMITER []
*T_UNIT 1 NS
*C_UNIT 1 PF
*R_UNIT 1 OHM
*L_UNIT 1 HENRY

*NAME_MAP
*3 bottom_left_grid_pin_1_
*4 ccff_head
*5 ccff_tail
*6 chanx_right_in[0]
*7 chanx_right_in[10]
*8 chanx_right_in[11]
*9 chanx_right_in[12]
*10 chanx_right_in[13]
*11 chanx_right_in[14]
*12 chanx_right_in[15]
*13 chanx_right_in[16]
*14 chanx_right_in[17]
*15 chanx_right_in[18]
*16 chanx_right_in[19]
*17 chanx_right_in[1]
*18 chanx_right_in[2]
*19 chanx_right_in[3]
*20 chanx_right_in[4]
*21 chanx_right_in[5]
*22 chanx_right_in[6]
*23 chanx_right_in[7]
*24 chanx_right_in[8]
*25 chanx_right_in[9]
*26 chanx_right_out[0]
*27 chanx_right_out[10]
*28 chanx_right_out[11]
*29 chanx_right_out[12]
*30 chanx_right_out[13]
*31 chanx_right_out[14]
*32 chanx_right_out[15]
*33 chanx_right_out[16]
*34 chanx_right_out[17]
*35 chanx_right_out[18]
*36 chanx_right_out[19]
*37 chanx_right_out[1]
*38 chanx_right_out[2]
*39 chanx_right_out[3]
*40 chanx_right_out[4]
*41 chanx_right_out[5]
*42 chanx_right_out[6]
*43 chanx_right_out[7]
*44 chanx_right_out[8]
*45 chanx_right_out[9]
*46 chany_bottom_in[0]
*47 chany_bottom_in[10]
*48 chany_bottom_in[11]
*49 chany_bottom_in[12]
*50 chany_bottom_in[13]
*51 chany_bottom_in[14]
*52 chany_bottom_in[15]
*53 chany_bottom_in[16]
*54 chany_bottom_in[17]
*55 chany_bottom_in[18]
*56 chany_bottom_in[19]
*57 chany_bottom_in[1]
*58 chany_bottom_in[2]
*59 chany_bottom_in[3]
*60 chany_bottom_in[4]
*61 chany_bottom_in[5]
*62 chany_bottom_in[6]
*63 chany_bottom_in[7]
*64 chany_bottom_in[8]
*65 chany_bottom_in[9]
*66 chany_bottom_out[0]
*67 chany_bottom_out[10]
*68 chany_bottom_out[11]
*69 chany_bottom_out[12]
*70 chany_bottom_out[13]
*71 chany_bottom_out[14]
*72 chany_bottom_out[15]
*73 chany_bottom_out[16]
*74 chany_bottom_out[17]
*75 chany_bottom_out[18]
*76 chany_bottom_out[19]
*77 chany_bottom_out[1]
*78 chany_bottom_out[2]
*79 chany_bottom_out[3]
*80 chany_bottom_out[4]
*81 chany_bottom_out[5]
*82 chany_bottom_out[6]
*83 chany_bottom_out[7]
*84 chany_bottom_out[8]
*85 chany_bottom_out[9]
*86 chany_top_in[0]
*87 chany_top_in[10]
*88 chany_top_in[11]
*89 chany_top_in[12]
*90 chany_top_in[13]
*91 chany_top_in[14]
*92 chany_top_in[15]
*93 chany_top_in[16]
*94 chany_top_in[17]
*95 chany_top_in[18]
*96 chany_top_in[19]
*97 chany_top_in[1]
*98 chany_top_in[2]
*99 chany_top_in[3]
*100 chany_top_in[4]
*101 chany_top_in[5]
*102 chany_top_in[6]
*103 chany_top_in[7]
*104 chany_top_in[8]
*105 chany_top_in[9]
*106 chany_top_out[0]
*107 chany_top_out[10]
*108 chany_top_out[11]
*109 chany_top_out[12]
*110 chany_top_out[13]
*111 chany_top_out[14]
*112 chany_top_out[15]
*113 chany_top_out[16]
*114 chany_top_out[17]
*115 chany_top_out[18]
*116 chany_top_out[19]
*117 chany_top_out[1]
*118 chany_top_out[2]
*119 chany_top_out[3]
*120 chany_top_out[4]
*121 chany_top_out[5]
*122 chany_top_out[6]
*123 chany_top_out[7]
*124 chany_top_out[8]
*125 chany_top_out[9]
*126 prog_clk_0_E_in
*127 right_bottom_grid_pin_34_
*128 right_bottom_grid_pin_35_
*129 right_bottom_grid_pin_36_
*130 right_bottom_grid_pin_37_
*131 right_bottom_grid_pin_38_
*132 right_bottom_grid_pin_39_
*133 right_bottom_grid_pin_40_
*134 right_bottom_grid_pin_41_
*135 top_left_grid_pin_1_
*136 _000_
*137 _001_
*138 _002_
*139 _003_
*140 _004_
*141 _005_
*142 _006_
*143 _007_
*144 _008_
*145 _009_
*146 _010_
*147 _011_
*148 _012_
*149 _013_
*150 _014_
*151 _015_
*152 _016_
*153 _017_
*154 _018_
*155 _019_
*156 _020_
*157 _021_
*158 _022_
*159 _023_
*160 _024_
*161 _025_
*162 _026_
*163 _027_
*164 _028_
*165 _029_
*166 _030_
*167 _031_
*168 _032_
*169 mem_bottom_track_1\.ccff_head
*170 mem_bottom_track_1\.ccff_tail
*171 mem_bottom_track_1\.mem_out\[0\]
*172 mem_bottom_track_1\.mem_out\[1\]
*173 mem_bottom_track_1\.prog_clk
*174 mem_bottom_track_17\.ccff_head
*175 mem_bottom_track_17\.ccff_tail
*176 mem_bottom_track_17\.mem_out\[0\]
*177 mem_bottom_track_17\.mem_out\[1\]
*178 mem_bottom_track_25\.ccff_tail
*179 mem_bottom_track_25\.mem_out\[0\]
*180 mem_bottom_track_25\.mem_out\[1\]
*181 mem_bottom_track_3\.ccff_tail
*182 mem_bottom_track_3\.mem_out\[0\]
*183 mem_bottom_track_3\.mem_out\[1\]
*184 mem_bottom_track_33\.mem_out\[0\]
*185 mem_bottom_track_5\.ccff_tail
*186 mem_bottom_track_5\.mem_out\[0\]
*187 mem_bottom_track_5\.mem_out\[1\]
*188 mem_bottom_track_9\.mem_out\[0\]
*189 mem_bottom_track_9\.mem_out\[1\]
*190 mem_right_track_0\.ccff_head
*191 mem_right_track_0\.ccff_tail
*192 mem_right_track_0\.mem_out\[0\]
*193 mem_right_track_0\.mem_out\[1\]
*194 mem_right_track_10\.ccff_head
*195 mem_right_track_10\.ccff_tail
*196 mem_right_track_10\.mem_out\[0\]
*197 mem_right_track_10\.mem_out\[1\]
*198 mem_right_track_12\.ccff_tail
*199 mem_right_track_12\.mem_out\[0\]
*200 mem_right_track_12\.mem_out\[1\]
*201 mem_right_track_14\.ccff_tail
*202 mem_right_track_14\.mem_out\[0\]
*203 mem_right_track_14\.mem_out\[1\]
*204 mem_right_track_16\.ccff_tail
*205 mem_right_track_16\.mem_out\[0\]
*206 mem_right_track_18\.ccff_tail
*207 mem_right_track_18\.mem_out\[0\]
*208 mem_right_track_2\.ccff_tail
*209 mem_right_track_2\.mem_out\[0\]
*210 mem_right_track_2\.mem_out\[1\]
*211 mem_right_track_20\.ccff_tail
*212 mem_right_track_20\.mem_out\[0\]
*213 mem_right_track_22\.ccff_tail
*214 mem_right_track_22\.mem_out\[0\]
*215 mem_right_track_24\.ccff_tail
*216 mem_right_track_24\.mem_out\[0\]
*217 mem_right_track_24\.mem_out\[1\]
*218 mem_right_track_26\.ccff_tail
*219 mem_right_track_26\.mem_out\[0\]
*220 mem_right_track_28\.ccff_tail
*221 mem_right_track_28\.mem_out\[0\]
*222 mem_right_track_30\.ccff_tail
*223 mem_right_track_30\.mem_out\[0\]
*224 mem_right_track_32\.ccff_tail
*225 mem_right_track_32\.mem_out\[0\]
*226 mem_right_track_34\.ccff_tail
*227 mem_right_track_34\.mem_out\[0\]
*228 mem_right_track_36\.mem_out\[0\]
*229 mem_right_track_4\.ccff_tail
*230 mem_right_track_4\.mem_out\[0\]
*231 mem_right_track_4\.mem_out\[1\]
*232 mem_right_track_6\.ccff_tail
*233 mem_right_track_6\.mem_out\[0\]
*234 mem_right_track_6\.mem_out\[1\]
*235 mem_right_track_8\.mem_out\[0\]
*236 mem_right_track_8\.mem_out\[1\]
*237 mem_top_track_0\.ccff_tail
*238 mem_top_track_0\.mem_out\[0\]
*239 mem_top_track_0\.mem_out\[1\]
*240 mem_top_track_16\.ccff_head
*241 mem_top_track_16\.ccff_tail
*242 mem_top_track_16\.mem_out\[0\]
*243 mem_top_track_16\.mem_out\[1\]
*244 mem_top_track_2\.ccff_tail
*245 mem_top_track_2\.mem_out\[0\]
*246 mem_top_track_2\.mem_out\[1\]
*247 mem_top_track_24\.ccff_tail
*248 mem_top_track_24\.mem_out\[0\]
*249 mem_top_track_24\.mem_out\[1\]
*250 mem_top_track_32\.mem_out\[0\]
*251 mem_top_track_32\.mem_out\[1\]
*252 mem_top_track_4\.ccff_tail
*253 mem_top_track_4\.mem_out\[0\]
*254 mem_top_track_4\.mem_out\[1\]
*255 mem_top_track_8\.mem_out\[0\]
*256 mem_top_track_8\.mem_out\[1\]
*257 mux_bottom_track_1\.out
*258 mux_bottom_track_1\.sky130_fd_sc_hd__mux2_1_0_X
*259 mux_bottom_track_1\.sky130_fd_sc_hd__mux2_1_1_X
*260 mux_bottom_track_1\.sky130_fd_sc_hd__mux2_1_2_X
*261 mux_bottom_track_1\.sky130_fd_sc_hd__mux2_1_3_X
*262 mux_bottom_track_1\.sky130_fd_sc_hd__mux2_1_4_X
*263 mux_bottom_track_1\.sky130_fd_sc_hd__mux2_1_5_X
*264 mux_bottom_track_17\.out
*265 mux_bottom_track_17\.sky130_fd_sc_hd__mux2_1_0_X
*266 mux_bottom_track_17\.sky130_fd_sc_hd__mux2_1_1_X
*267 mux_bottom_track_17\.sky130_fd_sc_hd__mux2_1_2_X
*268 mux_bottom_track_17\.sky130_fd_sc_hd__mux2_1_3_X
*269 mux_bottom_track_17\.sky130_fd_sc_hd__mux2_1_4_X
*270 mux_bottom_track_25\.out
*271 mux_bottom_track_25\.sky130_fd_sc_hd__mux2_1_0_X
*272 mux_bottom_track_25\.sky130_fd_sc_hd__mux2_1_1_X
*273 mux_bottom_track_25\.sky130_fd_sc_hd__mux2_1_2_X
*274 mux_bottom_track_25\.sky130_fd_sc_hd__mux2_1_3_X
*275 mux_bottom_track_25\.sky130_fd_sc_hd__mux2_1_4_X
*276 mux_bottom_track_3\.out
*277 mux_bottom_track_3\.sky130_fd_sc_hd__mux2_1_0_X
*278 mux_bottom_track_3\.sky130_fd_sc_hd__mux2_1_1_X
*279 mux_bottom_track_3\.sky130_fd_sc_hd__mux2_1_2_X
*280 mux_bottom_track_3\.sky130_fd_sc_hd__mux2_1_3_X
*281 mux_bottom_track_3\.sky130_fd_sc_hd__mux2_1_4_X
*282 mux_bottom_track_33\.out
*283 mux_bottom_track_33\.sky130_fd_sc_hd__mux2_1_0_X
*284 mux_bottom_track_33\.sky130_fd_sc_hd__mux2_1_1_X
*285 mux_bottom_track_33\.sky130_fd_sc_hd__mux2_1_2_X
*286 mux_bottom_track_5\.out
*287 mux_bottom_track_5\.sky130_fd_sc_hd__mux2_1_0_X
*288 mux_bottom_track_5\.sky130_fd_sc_hd__mux2_1_1_X
*289 mux_bottom_track_5\.sky130_fd_sc_hd__mux2_1_2_X
*290 mux_bottom_track_5\.sky130_fd_sc_hd__mux2_1_3_X
*291 mux_bottom_track_5\.sky130_fd_sc_hd__mux2_1_4_X
*292 mux_bottom_track_5\.sky130_fd_sc_hd__mux2_1_5_X
*293 mux_bottom_track_9\.out
*294 mux_bottom_track_9\.sky130_fd_sc_hd__mux2_1_0_X
*295 mux_bottom_track_9\.sky130_fd_sc_hd__mux2_1_1_X
*296 mux_bottom_track_9\.sky130_fd_sc_hd__mux2_1_2_X
*297 mux_bottom_track_9\.sky130_fd_sc_hd__mux2_1_3_X
*298 mux_bottom_track_9\.sky130_fd_sc_hd__mux2_1_4_X
*299 mux_bottom_track_9\.sky130_fd_sc_hd__mux2_1_5_X
*300 mux_right_track_0\.out
*301 mux_right_track_0\.sky130_fd_sc_hd__mux2_1_0_X
*302 mux_right_track_0\.sky130_fd_sc_hd__mux2_1_1_X
*303 mux_right_track_0\.sky130_fd_sc_hd__mux2_1_2_X
*304 mux_right_track_0\.sky130_fd_sc_hd__mux2_1_3_X
*305 mux_right_track_0\.sky130_fd_sc_hd__mux2_1_4_X
*306 mux_right_track_0\.sky130_fd_sc_hd__mux2_1_5_X
*307 mux_right_track_10\.out
*308 mux_right_track_10\.sky130_fd_sc_hd__mux2_1_0_X
*309 mux_right_track_10\.sky130_fd_sc_hd__mux2_1_1_X
*310 mux_right_track_10\.sky130_fd_sc_hd__mux2_1_2_X
*311 mux_right_track_10\.sky130_fd_sc_hd__mux2_1_3_X
*312 mux_right_track_12\.out
*313 mux_right_track_12\.sky130_fd_sc_hd__mux2_1_0_X
*314 mux_right_track_12\.sky130_fd_sc_hd__mux2_1_1_X
*315 mux_right_track_12\.sky130_fd_sc_hd__mux2_1_2_X
*316 mux_right_track_12\.sky130_fd_sc_hd__mux2_1_3_X
*317 mux_right_track_14\.out
*318 mux_right_track_14\.sky130_fd_sc_hd__mux2_1_0_X
*319 mux_right_track_14\.sky130_fd_sc_hd__mux2_1_1_X
*320 mux_right_track_14\.sky130_fd_sc_hd__mux2_1_2_X
*321 mux_right_track_14\.sky130_fd_sc_hd__mux2_1_3_X
*322 mux_right_track_16\.out
*323 mux_right_track_16\.sky130_fd_sc_hd__mux2_1_0_X
*324 mux_right_track_16\.sky130_fd_sc_hd__mux2_1_1_X
*325 mux_right_track_16\.sky130_fd_sc_hd__mux2_1_2_X
*326 mux_right_track_18\.out
*327 mux_right_track_18\.sky130_fd_sc_hd__mux2_1_0_X
*328 mux_right_track_18\.sky130_fd_sc_hd__mux2_1_1_X
*329 mux_right_track_18\.sky130_fd_sc_hd__mux2_1_2_X
*330 mux_right_track_2\.out
*331 mux_right_track_2\.sky130_fd_sc_hd__mux2_1_0_X
*332 mux_right_track_2\.sky130_fd_sc_hd__mux2_1_1_X
*333 mux_right_track_2\.sky130_fd_sc_hd__mux2_1_2_X
*334 mux_right_track_2\.sky130_fd_sc_hd__mux2_1_3_X
*335 mux_right_track_2\.sky130_fd_sc_hd__mux2_1_4_X
*336 mux_right_track_2\.sky130_fd_sc_hd__mux2_1_5_X
*337 mux_right_track_2\.sky130_fd_sc_hd__mux2_1_6_X
*338 mux_right_track_20\.out
*339 mux_right_track_20\.sky130_fd_sc_hd__mux2_1_0_X
*340 mux_right_track_20\.sky130_fd_sc_hd__mux2_1_1_X
*341 mux_right_track_20\.sky130_fd_sc_hd__mux2_1_2_X
*342 mux_right_track_22\.out
*343 mux_right_track_22\.sky130_fd_sc_hd__mux2_1_0_X
*344 mux_right_track_22\.sky130_fd_sc_hd__mux2_1_1_X
*345 mux_right_track_22\.sky130_fd_sc_hd__mux2_1_2_X
*346 mux_right_track_24\.out
*347 mux_right_track_24\.sky130_fd_sc_hd__mux2_1_0_X
*348 mux_right_track_24\.sky130_fd_sc_hd__mux2_1_1_X
*349 mux_right_track_24\.sky130_fd_sc_hd__mux2_1_2_X
*350 mux_right_track_24\.sky130_fd_sc_hd__mux2_1_3_X
*351 mux_right_track_26\.out
*352 mux_right_track_26\.sky130_fd_sc_hd__mux2_1_0_X
*353 mux_right_track_26\.sky130_fd_sc_hd__mux2_1_1_X
*354 mux_right_track_28\.out
*355 mux_right_track_28\.sky130_fd_sc_hd__mux2_1_0_X
*356 mux_right_track_28\.sky130_fd_sc_hd__mux2_1_1_X
*357 mux_right_track_30\.out
*358 mux_right_track_30\.sky130_fd_sc_hd__mux2_1_0_X
*359 mux_right_track_30\.sky130_fd_sc_hd__mux2_1_1_X
*360 mux_right_track_32\.out
*361 mux_right_track_32\.sky130_fd_sc_hd__mux2_1_0_X
*362 mux_right_track_32\.sky130_fd_sc_hd__mux2_1_1_X
*363 mux_right_track_34\.out
*364 mux_right_track_34\.sky130_fd_sc_hd__mux2_1_0_X
*365 mux_right_track_34\.sky130_fd_sc_hd__mux2_1_1_X
*366 mux_right_track_36\.out
*367 mux_right_track_36\.sky130_fd_sc_hd__mux2_1_0_X
*368 mux_right_track_36\.sky130_fd_sc_hd__mux2_1_1_X
*369 mux_right_track_4\.out
*370 mux_right_track_4\.sky130_fd_sc_hd__mux2_1_0_X
*371 mux_right_track_4\.sky130_fd_sc_hd__mux2_1_1_X
*372 mux_right_track_4\.sky130_fd_sc_hd__mux2_1_2_X
*373 mux_right_track_4\.sky130_fd_sc_hd__mux2_1_3_X
*374 mux_right_track_4\.sky130_fd_sc_hd__mux2_1_4_X
*375 mux_right_track_4\.sky130_fd_sc_hd__mux2_1_5_X
*376 mux_right_track_4\.sky130_fd_sc_hd__mux2_1_6_X
*377 mux_right_track_6\.out
*378 mux_right_track_6\.sky130_fd_sc_hd__mux2_1_0_X
*379 mux_right_track_6\.sky130_fd_sc_hd__mux2_1_1_X
*380 mux_right_track_6\.sky130_fd_sc_hd__mux2_1_2_X
*381 mux_right_track_6\.sky130_fd_sc_hd__mux2_1_3_X
*382 mux_right_track_6\.sky130_fd_sc_hd__mux2_1_4_X
*383 mux_right_track_6\.sky130_fd_sc_hd__mux2_1_5_X
*384 mux_right_track_6\.sky130_fd_sc_hd__mux2_1_6_X
*385 mux_right_track_8\.out
*386 mux_right_track_8\.sky130_fd_sc_hd__mux2_1_0_X
*387 mux_right_track_8\.sky130_fd_sc_hd__mux2_1_1_X
*388 mux_right_track_8\.sky130_fd_sc_hd__mux2_1_2_X
*389 mux_right_track_8\.sky130_fd_sc_hd__mux2_1_3_X
*390 mux_top_track_0\.out
*391 mux_top_track_0\.sky130_fd_sc_hd__mux2_1_0_X
*392 mux_top_track_0\.sky130_fd_sc_hd__mux2_1_1_X
*393 mux_top_track_0\.sky130_fd_sc_hd__mux2_1_2_X
*394 mux_top_track_0\.sky130_fd_sc_hd__mux2_1_3_X
*395 mux_top_track_0\.sky130_fd_sc_hd__mux2_1_4_X
*396 mux_top_track_0\.sky130_fd_sc_hd__mux2_1_5_X
*397 mux_top_track_16\.out
*398 mux_top_track_16\.sky130_fd_sc_hd__mux2_1_0_X
*399 mux_top_track_16\.sky130_fd_sc_hd__mux2_1_1_X
*400 mux_top_track_16\.sky130_fd_sc_hd__mux2_1_2_X
*401 mux_top_track_16\.sky130_fd_sc_hd__mux2_1_3_X
*402 mux_top_track_16\.sky130_fd_sc_hd__mux2_1_4_X
*403 mux_top_track_2\.out
*404 mux_top_track_2\.sky130_fd_sc_hd__mux2_1_0_X
*405 mux_top_track_2\.sky130_fd_sc_hd__mux2_1_1_X
*406 mux_top_track_2\.sky130_fd_sc_hd__mux2_1_2_X
*407 mux_top_track_2\.sky130_fd_sc_hd__mux2_1_3_X
*408 mux_top_track_2\.sky130_fd_sc_hd__mux2_1_4_X
*409 mux_top_track_24\.out
*410 mux_top_track_24\.sky130_fd_sc_hd__mux2_1_0_X
*411 mux_top_track_24\.sky130_fd_sc_hd__mux2_1_1_X
*412 mux_top_track_24\.sky130_fd_sc_hd__mux2_1_2_X
*413 mux_top_track_24\.sky130_fd_sc_hd__mux2_1_3_X
*414 mux_top_track_32\.out
*415 mux_top_track_32\.sky130_fd_sc_hd__mux2_1_0_X
*416 mux_top_track_32\.sky130_fd_sc_hd__mux2_1_1_X
*417 mux_top_track_32\.sky130_fd_sc_hd__mux2_1_2_X
*418 mux_top_track_32\.sky130_fd_sc_hd__mux2_1_3_X
*419 mux_top_track_4\.out
*420 mux_top_track_4\.sky130_fd_sc_hd__mux2_1_0_X
*421 mux_top_track_4\.sky130_fd_sc_hd__mux2_1_1_X
*422 mux_top_track_4\.sky130_fd_sc_hd__mux2_1_2_X
*423 mux_top_track_4\.sky130_fd_sc_hd__mux2_1_3_X
*424 mux_top_track_4\.sky130_fd_sc_hd__mux2_1_4_X
*425 mux_top_track_4\.sky130_fd_sc_hd__mux2_1_5_X
*426 mux_top_track_8\.out
*427 mux_top_track_8\.sky130_fd_sc_hd__mux2_1_0_X
*428 mux_top_track_8\.sky130_fd_sc_hd__mux2_1_1_X
*429 mux_top_track_8\.sky130_fd_sc_hd__mux2_1_2_X
*430 mux_top_track_8\.sky130_fd_sc_hd__mux2_1_3_X
*431 mux_top_track_8\.sky130_fd_sc_hd__mux2_1_4_X
*432 mux_top_track_8\.sky130_fd_sc_hd__mux2_1_5_X
*433 ANTENNA__085__A
*434 ANTENNA__089__A
*435 ANTENNA__091__A
*436 ANTENNA__092__A
*437 ANTENNA__093__A
*438 ANTENNA__095__A
*439 ANTENNA__096__A
*440 ANTENNA__097__A
*441 ANTENNA__099__A
*442 ANTENNA__100__A
*443 ANTENNA__101__A
*444 ANTENNA__103__A
*445 ANTENNA__104__A
*446 ANTENNA__105__A
*447 ANTENNA__109__A
*448 ANTENNA__111__A
*449 ANTENNA__112__A
*450 ANTENNA__113__A
*451 ANTENNA__115__A
*452 ANTENNA__116__A
*453 ANTENNA__117__A
*454 ANTENNA__119__A
*455 ANTENNA__120__A
*456 ANTENNA__121__A
*457 ANTENNA__123__A
*458 ANTENNA__124__A
*459 ANTENNA__125__A
*460 ANTENNA_mem_bottom_track_1\.sky130_fd_sc_hd__dfxtp_1_0__CLK
*461 ANTENNA_mem_bottom_track_1\.sky130_fd_sc_hd__dfxtp_1_1__CLK
*462 ANTENNA_mem_bottom_track_1\.sky130_fd_sc_hd__dfxtp_1_2__CLK
*463 ANTENNA_mem_bottom_track_17\.sky130_fd_sc_hd__dfxtp_1_0__CLK
*464 ANTENNA_mem_bottom_track_17\.sky130_fd_sc_hd__dfxtp_1_0__D
*465 ANTENNA_mem_bottom_track_17\.sky130_fd_sc_hd__dfxtp_1_1__CLK
*466 ANTENNA_mem_bottom_track_17\.sky130_fd_sc_hd__dfxtp_1_2__CLK
*467 ANTENNA_mem_bottom_track_25\.sky130_fd_sc_hd__dfxtp_1_0__CLK
*468 ANTENNA_mem_bottom_track_25\.sky130_fd_sc_hd__dfxtp_1_1__CLK
*469 ANTENNA_mem_bottom_track_25\.sky130_fd_sc_hd__dfxtp_1_2__CLK
*470 ANTENNA_mem_bottom_track_3\.sky130_fd_sc_hd__dfxtp_1_0__CLK
*471 ANTENNA_mem_bottom_track_3\.sky130_fd_sc_hd__dfxtp_1_1__CLK
*472 ANTENNA_mem_bottom_track_3\.sky130_fd_sc_hd__dfxtp_1_1__D
*473 ANTENNA_mem_bottom_track_3\.sky130_fd_sc_hd__dfxtp_1_2__CLK
*474 ANTENNA_mem_bottom_track_33\.sky130_fd_sc_hd__dfxtp_1_0__CLK
*475 ANTENNA_mem_bottom_track_33\.sky130_fd_sc_hd__dfxtp_1_1__CLK
*476 ANTENNA_mem_bottom_track_5\.sky130_fd_sc_hd__dfxtp_1_0__CLK
*477 ANTENNA_mem_bottom_track_5\.sky130_fd_sc_hd__dfxtp_1_1__CLK
*478 ANTENNA_mem_bottom_track_5\.sky130_fd_sc_hd__dfxtp_1_2__CLK
*479 ANTENNA_mem_bottom_track_9\.sky130_fd_sc_hd__dfxtp_1_0__CLK
*480 ANTENNA_mem_bottom_track_9\.sky130_fd_sc_hd__dfxtp_1_1__CLK
*481 ANTENNA_mem_bottom_track_9\.sky130_fd_sc_hd__dfxtp_1_2__CLK
*482 ANTENNA_mem_right_track_0\.sky130_fd_sc_hd__dfxtp_1_0__CLK
*483 ANTENNA_mem_right_track_0\.sky130_fd_sc_hd__dfxtp_1_1__CLK
*484 ANTENNA_mem_right_track_0\.sky130_fd_sc_hd__dfxtp_1_1__D
*485 ANTENNA_mem_right_track_0\.sky130_fd_sc_hd__dfxtp_1_2__CLK
*486 ANTENNA_mem_right_track_10\.sky130_fd_sc_hd__dfxtp_1_0__CLK
*487 ANTENNA_mem_right_track_10\.sky130_fd_sc_hd__dfxtp_1_1__CLK
*488 ANTENNA_mem_right_track_10\.sky130_fd_sc_hd__dfxtp_1_2__CLK
*489 ANTENNA_mem_right_track_12\.sky130_fd_sc_hd__dfxtp_1_0__CLK
*490 ANTENNA_mem_right_track_12\.sky130_fd_sc_hd__dfxtp_1_1__CLK
*491 ANTENNA_mem_right_track_12\.sky130_fd_sc_hd__dfxtp_1_2__CLK
*492 ANTENNA_mem_right_track_14\.sky130_fd_sc_hd__dfxtp_1_0__CLK
*493 ANTENNA_mem_right_track_14\.sky130_fd_sc_hd__dfxtp_1_1__CLK
*494 ANTENNA_mem_right_track_14\.sky130_fd_sc_hd__dfxtp_1_2__CLK
*495 ANTENNA_mem_right_track_16\.sky130_fd_sc_hd__dfxtp_1_0__CLK
*496 ANTENNA_mem_right_track_16\.sky130_fd_sc_hd__dfxtp_1_1__CLK
*497 ANTENNA_mem_right_track_18\.sky130_fd_sc_hd__dfxtp_1_0__CLK
*498 ANTENNA_mem_right_track_18\.sky130_fd_sc_hd__dfxtp_1_1__CLK
*499 ANTENNA_mem_right_track_2\.sky130_fd_sc_hd__dfxtp_1_0__CLK
*500 ANTENNA_mem_right_track_2\.sky130_fd_sc_hd__dfxtp_1_1__CLK
*501 ANTENNA_mem_right_track_2\.sky130_fd_sc_hd__dfxtp_1_2__CLK
*502 ANTENNA_mem_right_track_20\.sky130_fd_sc_hd__dfxtp_1_0__CLK
*503 ANTENNA_mem_right_track_20\.sky130_fd_sc_hd__dfxtp_1_1__CLK
*504 ANTENNA_mem_right_track_22\.sky130_fd_sc_hd__dfxtp_1_0__CLK
*505 ANTENNA_mem_right_track_22\.sky130_fd_sc_hd__dfxtp_1_1__CLK
*506 ANTENNA_mem_right_track_24\.sky130_fd_sc_hd__dfxtp_1_0__CLK
*507 ANTENNA_mem_right_track_24\.sky130_fd_sc_hd__dfxtp_1_1__CLK
*508 ANTENNA_mem_right_track_24\.sky130_fd_sc_hd__dfxtp_1_2__CLK
*509 ANTENNA_mem_right_track_26\.sky130_fd_sc_hd__dfxtp_1_0__CLK
*510 ANTENNA_mem_right_track_26\.sky130_fd_sc_hd__dfxtp_1_1__CLK
*511 ANTENNA_mem_right_track_28\.sky130_fd_sc_hd__dfxtp_1_0__CLK
*512 ANTENNA_mem_right_track_28\.sky130_fd_sc_hd__dfxtp_1_1__CLK
*513 ANTENNA_mem_right_track_30\.sky130_fd_sc_hd__dfxtp_1_0__CLK
*514 ANTENNA_mem_right_track_30\.sky130_fd_sc_hd__dfxtp_1_1__CLK
*515 ANTENNA_mem_right_track_32\.sky130_fd_sc_hd__dfxtp_1_0__CLK
*516 ANTENNA_mem_right_track_32\.sky130_fd_sc_hd__dfxtp_1_1__CLK
*517 ANTENNA_mem_right_track_34\.sky130_fd_sc_hd__dfxtp_1_0__CLK
*518 ANTENNA_mem_right_track_34\.sky130_fd_sc_hd__dfxtp_1_1__CLK
*519 ANTENNA_mem_right_track_36\.sky130_fd_sc_hd__dfxtp_1_0__CLK
*520 ANTENNA_mem_right_track_36\.sky130_fd_sc_hd__dfxtp_1_1__CLK
*521 ANTENNA_mem_right_track_4\.sky130_fd_sc_hd__dfxtp_1_0__CLK
*522 ANTENNA_mem_right_track_4\.sky130_fd_sc_hd__dfxtp_1_1__CLK
*523 ANTENNA_mem_right_track_4\.sky130_fd_sc_hd__dfxtp_1_2__CLK
*524 ANTENNA_mem_right_track_6\.sky130_fd_sc_hd__dfxtp_1_0__CLK
*525 ANTENNA_mem_right_track_6\.sky130_fd_sc_hd__dfxtp_1_1__CLK
*526 ANTENNA_mem_right_track_6\.sky130_fd_sc_hd__dfxtp_1_2__CLK
*527 ANTENNA_mem_right_track_8\.sky130_fd_sc_hd__dfxtp_1_0__CLK
*528 ANTENNA_mem_right_track_8\.sky130_fd_sc_hd__dfxtp_1_1__CLK
*529 ANTENNA_mem_right_track_8\.sky130_fd_sc_hd__dfxtp_1_2__CLK
*530 ANTENNA_mem_top_track_0\.sky130_fd_sc_hd__dfxtp_1_0__CLK
*531 ANTENNA_mem_top_track_0\.sky130_fd_sc_hd__dfxtp_1_0__D
*532 ANTENNA_mem_top_track_0\.sky130_fd_sc_hd__dfxtp_1_1__CLK
*533 ANTENNA_mem_top_track_0\.sky130_fd_sc_hd__dfxtp_1_2__CLK
*534 ANTENNA_mem_top_track_16\.sky130_fd_sc_hd__dfxtp_1_0__CLK
*535 ANTENNA_mem_top_track_16\.sky130_fd_sc_hd__dfxtp_1_1__CLK
*536 ANTENNA_mem_top_track_16\.sky130_fd_sc_hd__dfxtp_1_2__CLK
*537 ANTENNA_mem_top_track_2\.sky130_fd_sc_hd__dfxtp_1_0__CLK
*538 ANTENNA_mem_top_track_2\.sky130_fd_sc_hd__dfxtp_1_1__CLK
*539 ANTENNA_mem_top_track_2\.sky130_fd_sc_hd__dfxtp_1_2__CLK
*540 ANTENNA_mem_top_track_24\.sky130_fd_sc_hd__dfxtp_1_0__CLK
*541 ANTENNA_mem_top_track_24\.sky130_fd_sc_hd__dfxtp_1_1__CLK
*542 ANTENNA_mem_top_track_24\.sky130_fd_sc_hd__dfxtp_1_2__CLK
*543 ANTENNA_mem_top_track_32\.sky130_fd_sc_hd__dfxtp_1_0__CLK
*544 ANTENNA_mem_top_track_32\.sky130_fd_sc_hd__dfxtp_1_1__CLK
*545 ANTENNA_mem_top_track_32\.sky130_fd_sc_hd__dfxtp_1_2__CLK
*546 ANTENNA_mem_top_track_4\.sky130_fd_sc_hd__dfxtp_1_0__CLK
*547 ANTENNA_mem_top_track_4\.sky130_fd_sc_hd__dfxtp_1_1__CLK
*548 ANTENNA_mem_top_track_4\.sky130_fd_sc_hd__dfxtp_1_2__CLK
*549 ANTENNA_mem_top_track_8\.sky130_fd_sc_hd__dfxtp_1_0__CLK
*550 ANTENNA_mem_top_track_8\.sky130_fd_sc_hd__dfxtp_1_1__CLK
*551 ANTENNA_mem_top_track_8\.sky130_fd_sc_hd__dfxtp_1_2__CLK
*552 ANTENNA_mux_bottom_track_1\.mux_l1_in_0__A0
*553 ANTENNA_mux_bottom_track_1\.mux_l1_in_0__A1
*554 ANTENNA_mux_bottom_track_1\.mux_l1_in_1__A0
*555 ANTENNA_mux_bottom_track_1\.mux_l1_in_1__A1
*556 ANTENNA_mux_bottom_track_1\.mux_l1_in_2__A0
*557 ANTENNA_mux_bottom_track_1\.mux_l1_in_2__A1
*558 ANTENNA_mux_bottom_track_17\.mux_l1_in_0__A0
*559 ANTENNA_mux_bottom_track_17\.mux_l1_in_0__A1
*560 ANTENNA_mux_bottom_track_17\.mux_l1_in_1__A0
*561 ANTENNA_mux_bottom_track_17\.mux_l1_in_1__A1
*562 ANTENNA_mux_bottom_track_17\.mux_l2_in_1__A1
*563 ANTENNA_mux_bottom_track_25\.mux_l1_in_0__A0
*564 ANTENNA_mux_bottom_track_25\.mux_l1_in_0__A1
*565 ANTENNA_mux_bottom_track_25\.mux_l1_in_1__A0
*566 ANTENNA_mux_bottom_track_25\.mux_l1_in_1__A1
*567 ANTENNA_mux_bottom_track_25\.mux_l2_in_1__A1
*568 ANTENNA_mux_bottom_track_3\.mux_l1_in_0__A0
*569 ANTENNA_mux_bottom_track_3\.mux_l1_in_0__A1
*570 ANTENNA_mux_bottom_track_3\.mux_l1_in_0__S
*571 ANTENNA_mux_bottom_track_3\.mux_l1_in_1__A0
*572 ANTENNA_mux_bottom_track_3\.mux_l1_in_1__A1
*573 ANTENNA_mux_bottom_track_3\.mux_l1_in_1__S
*574 ANTENNA_mux_bottom_track_3\.mux_l2_in_1__A1
*575 ANTENNA_mux_bottom_track_33\.mux_l1_in_0__A0
*576 ANTENNA_mux_bottom_track_33\.mux_l1_in_0__A1
*577 ANTENNA_mux_bottom_track_33\.mux_l1_in_1__A1
*578 ANTENNA_mux_bottom_track_33\.mux_l2_in_0__S
*579 ANTENNA_mux_bottom_track_5\.mux_l1_in_0__A0
*580 ANTENNA_mux_bottom_track_5\.mux_l1_in_0__A1
*581 ANTENNA_mux_bottom_track_5\.mux_l1_in_1__A0
*582 ANTENNA_mux_bottom_track_5\.mux_l1_in_1__A1
*583 ANTENNA_mux_bottom_track_5\.mux_l1_in_2__A0
*584 ANTENNA_mux_bottom_track_5\.mux_l1_in_2__A1
*585 ANTENNA_mux_bottom_track_9\.mux_l1_in_0__A0
*586 ANTENNA_mux_bottom_track_9\.mux_l1_in_0__A1
*587 ANTENNA_mux_bottom_track_9\.mux_l1_in_1__A0
*588 ANTENNA_mux_bottom_track_9\.mux_l1_in_1__A1
*589 ANTENNA_mux_bottom_track_9\.mux_l1_in_2__A0
*590 ANTENNA_mux_bottom_track_9\.mux_l1_in_2__A1
*591 ANTENNA_mux_bottom_track_9\.mux_l3_in_0__S
*592 ANTENNA_mux_right_track_0\.mux_l1_in_0__A0
*593 ANTENNA_mux_right_track_0\.mux_l1_in_0__A1
*594 ANTENNA_mux_right_track_0\.mux_l1_in_0__S
*595 ANTENNA_mux_right_track_0\.mux_l1_in_1__A0
*596 ANTENNA_mux_right_track_0\.mux_l1_in_1__A1
*597 ANTENNA_mux_right_track_0\.mux_l1_in_1__S
*598 ANTENNA_mux_right_track_0\.mux_l1_in_2__A0
*599 ANTENNA_mux_right_track_0\.mux_l1_in_2__A1
*600 ANTENNA_mux_right_track_0\.mux_l1_in_2__S
*601 ANTENNA_mux_right_track_10\.mux_l1_in_0__A0
*602 ANTENNA_mux_right_track_10\.mux_l1_in_0__A1
*603 ANTENNA_mux_right_track_10\.mux_l2_in_0__A0
*604 ANTENNA_mux_right_track_10\.mux_l2_in_1__A1
*605 ANTENNA_mux_right_track_12\.mux_l1_in_0__A0
*606 ANTENNA_mux_right_track_12\.mux_l1_in_0__A1
*607 ANTENNA_mux_right_track_12\.mux_l2_in_0__A0
*608 ANTENNA_mux_right_track_12\.mux_l2_in_1__A1
*609 ANTENNA_mux_right_track_12\.sky130_fd_sc_hd__buf_4_0__A
*610 ANTENNA_mux_right_track_14\.mux_l1_in_0__A0
*611 ANTENNA_mux_right_track_14\.mux_l1_in_0__A1
*612 ANTENNA_mux_right_track_14\.mux_l2_in_0__A0
*613 ANTENNA_mux_right_track_14\.mux_l2_in_1__A1
*614 ANTENNA_mux_right_track_16\.mux_l1_in_0__A0
*615 ANTENNA_mux_right_track_16\.mux_l1_in_0__A1
*616 ANTENNA_mux_right_track_16\.mux_l1_in_1__A1
*617 ANTENNA_mux_right_track_18\.mux_l1_in_0__A0
*618 ANTENNA_mux_right_track_18\.mux_l1_in_0__A1
*619 ANTENNA_mux_right_track_18\.mux_l1_in_1__A1
*620 ANTENNA_mux_right_track_2\.mux_l1_in_0__A0
*621 ANTENNA_mux_right_track_2\.mux_l1_in_0__A1
*622 ANTENNA_mux_right_track_2\.mux_l1_in_1__A0
*623 ANTENNA_mux_right_track_2\.mux_l1_in_1__A1
*624 ANTENNA_mux_right_track_2\.mux_l1_in_2__A0
*625 ANTENNA_mux_right_track_2\.mux_l1_in_2__A1
*626 ANTENNA_mux_right_track_2\.mux_l1_in_3__A1
*627 ANTENNA_mux_right_track_20\.mux_l1_in_0__A0
*628 ANTENNA_mux_right_track_20\.mux_l1_in_0__A1
*629 ANTENNA_mux_right_track_20\.mux_l1_in_1__A1
*630 ANTENNA_mux_right_track_22\.mux_l1_in_0__A0
*631 ANTENNA_mux_right_track_22\.mux_l1_in_0__A1
*632 ANTENNA_mux_right_track_22\.mux_l1_in_1__A1
*633 ANTENNA_mux_right_track_24\.mux_l1_in_0__A0
*634 ANTENNA_mux_right_track_24\.mux_l1_in_0__A1
*635 ANTENNA_mux_right_track_24\.mux_l2_in_0__A0
*636 ANTENNA_mux_right_track_24\.mux_l2_in_1__A1
*637 ANTENNA_mux_right_track_26\.mux_l1_in_0__A0
*638 ANTENNA_mux_right_track_26\.mux_l1_in_0__A1
*639 ANTENNA_mux_right_track_28\.mux_l1_in_0__A0
*640 ANTENNA_mux_right_track_28\.mux_l1_in_0__A1
*641 ANTENNA_mux_right_track_30\.mux_l1_in_0__A0
*642 ANTENNA_mux_right_track_30\.mux_l1_in_0__A1
*643 ANTENNA_mux_right_track_32\.mux_l1_in_0__A0
*644 ANTENNA_mux_right_track_32\.mux_l1_in_0__A1
*645 ANTENNA_mux_right_track_34\.mux_l1_in_0__A0
*646 ANTENNA_mux_right_track_34\.mux_l1_in_0__A1
*647 ANTENNA_mux_right_track_36\.mux_l1_in_0__A0
*648 ANTENNA_mux_right_track_36\.mux_l1_in_0__A1
*649 ANTENNA_mux_right_track_4\.mux_l1_in_0__A0
*650 ANTENNA_mux_right_track_4\.mux_l1_in_0__A1
*651 ANTENNA_mux_right_track_4\.mux_l1_in_1__A0
*652 ANTENNA_mux_right_track_4\.mux_l1_in_1__A1
*653 ANTENNA_mux_right_track_4\.mux_l1_in_2__A0
*654 ANTENNA_mux_right_track_4\.mux_l1_in_2__A1
*655 ANTENNA_mux_right_track_4\.mux_l1_in_3__A1
*656 ANTENNA_mux_right_track_6\.mux_l1_in_0__A0
*657 ANTENNA_mux_right_track_6\.mux_l1_in_0__A1
*658 ANTENNA_mux_right_track_6\.mux_l1_in_1__A0
*659 ANTENNA_mux_right_track_6\.mux_l1_in_1__A1
*660 ANTENNA_mux_right_track_6\.mux_l1_in_2__A0
*661 ANTENNA_mux_right_track_6\.mux_l1_in_2__A1
*662 ANTENNA_mux_right_track_6\.mux_l1_in_3__A1
*663 ANTENNA_mux_right_track_8\.mux_l1_in_0__A0
*664 ANTENNA_mux_right_track_8\.mux_l1_in_0__A1
*665 ANTENNA_mux_right_track_8\.mux_l2_in_0__A0
*666 ANTENNA_mux_right_track_8\.mux_l2_in_1__A1
*667 ANTENNA_mux_top_track_0\.mux_l1_in_0__A0
*668 ANTENNA_mux_top_track_0\.mux_l1_in_0__A1
*669 ANTENNA_mux_top_track_0\.mux_l1_in_1__A0
*670 ANTENNA_mux_top_track_0\.mux_l1_in_1__A1
*671 ANTENNA_mux_top_track_0\.mux_l1_in_2__A0
*672 ANTENNA_mux_top_track_0\.mux_l1_in_2__A1
*673 ANTENNA_mux_top_track_16\.mux_l1_in_0__A0
*674 ANTENNA_mux_top_track_16\.mux_l1_in_0__A1
*675 ANTENNA_mux_top_track_16\.mux_l1_in_1__A0
*676 ANTENNA_mux_top_track_16\.mux_l1_in_1__A1
*677 ANTENNA_mux_top_track_16\.mux_l2_in_1__A1
*678 ANTENNA_mux_top_track_2\.mux_l1_in_0__A0
*679 ANTENNA_mux_top_track_2\.mux_l1_in_0__A1
*680 ANTENNA_mux_top_track_2\.mux_l1_in_1__A0
*681 ANTENNA_mux_top_track_2\.mux_l1_in_1__A1
*682 ANTENNA_mux_top_track_2\.mux_l2_in_1__A1
*683 ANTENNA_mux_top_track_24\.mux_l1_in_0__A0
*684 ANTENNA_mux_top_track_24\.mux_l1_in_0__A1
*685 ANTENNA_mux_top_track_24\.mux_l2_in_0__A0
*686 ANTENNA_mux_top_track_24\.mux_l2_in_1__A1
*687 ANTENNA_mux_top_track_32\.mux_l1_in_0__A0
*688 ANTENNA_mux_top_track_32\.mux_l1_in_0__A1
*689 ANTENNA_mux_top_track_32\.mux_l2_in_0__A0
*690 ANTENNA_mux_top_track_32\.mux_l2_in_1__A1
*691 ANTENNA_mux_top_track_4\.mux_l1_in_0__A0
*692 ANTENNA_mux_top_track_4\.mux_l1_in_0__A1
*693 ANTENNA_mux_top_track_4\.mux_l1_in_1__A0
*694 ANTENNA_mux_top_track_4\.mux_l1_in_1__A1
*695 ANTENNA_mux_top_track_4\.mux_l1_in_2__A0
*696 ANTENNA_mux_top_track_4\.mux_l1_in_2__A1
*697 ANTENNA_mux_top_track_8\.mux_l1_in_0__A0
*698 ANTENNA_mux_top_track_8\.mux_l1_in_0__A1
*699 ANTENNA_mux_top_track_8\.mux_l1_in_1__A0
*700 ANTENNA_mux_top_track_8\.mux_l1_in_1__A1
*701 ANTENNA_mux_top_track_8\.mux_l1_in_2__A0
*702 ANTENNA_mux_top_track_8\.mux_l1_in_2__A1
*703 ANTENNA_prog_clk_0_FTB00_A
*704 FILLER_0_102
*705 FILLER_0_106
*706 FILLER_0_110
*707 FILLER_0_113
*708 FILLER_0_116
*709 FILLER_0_122
*710 FILLER_0_128
*711 FILLER_0_134
*712 FILLER_0_138
*713 FILLER_0_145
*714 FILLER_0_149
*715 FILLER_0_15
*716 FILLER_0_154
*717 FILLER_0_158
*718 FILLER_0_162
*719 FILLER_0_166
*720 FILLER_0_169
*721 FILLER_0_172
*722 FILLER_0_176
*723 FILLER_0_180
*724 FILLER_0_184
*725 FILLER_0_189
*726 FILLER_0_193
*727 FILLER_0_199
*728 FILLER_0_203
*729 FILLER_0_207
*730 FILLER_0_211
*731 FILLER_0_215
*732 FILLER_0_221
*733 FILLER_0_27
*734 FILLER_0_29
*735 FILLER_0_3
*736 FILLER_0_41
*737 FILLER_0_53
*738 FILLER_0_57
*739 FILLER_0_69
*740 FILLER_0_81
*741 FILLER_0_85
*742 FILLER_0_93
*743 FILLER_0_98
*744 FILLER_10_100
*745 FILLER_10_104
*746 FILLER_10_115
*747 FILLER_10_119
*748 FILLER_10_129
*749 FILLER_10_133
*750 FILLER_10_138
*751 FILLER_10_15