*SPEF "ieee 1481-1999"
*DESIGN "sb_0__0_"
*DATE "11:11:11 Fri 11 11, 1111"
*VENDOR "OpenRCX"
*PROGRAM "Parallel Extraction"
*VERSION "1.0"
*DESIGN_FLOW "NAME_SCOPE LOCAL" "PIN_CAP NONE"
*DIVIDER /
*DELIMITER :
*BUS_DELIMITER []
*T_UNIT 1 NS
*C_UNIT 1 PF
*R_UNIT 1 OHM
*L_UNIT 1 HENRY

*NAME_MAP
*3 ccff_head
*4 ccff_tail
*5 chanx_right_in[0]
*6 chanx_right_in[10]
*7 chanx_right_in[11]
*8 chanx_right_in[12]
*9 chanx_right_in[13]
*10 chanx_right_in[14]
*11 chanx_right_in[15]
*12 chanx_right_in[16]
*13 chanx_right_in[17]
*14 chanx_right_in[18]
*15 chanx_right_in[19]
*16 chanx_right_in[1]
*17 chanx_right_in[2]
*18 chanx_right_in[3]
*19 chanx_right_in[4]
*20 chanx_right_in[5]
*21 chanx_right_in[6]
*22 chanx_right_in[7]
*23 chanx_right_in[8]
*24 chanx_right_in[9]
*25 chanx_right_out[0]
*26 chanx_right_out[10]
*27 chanx_right_out[11]
*28 chanx_right_out[12]
*29 chanx_right_out[13]
*30 chanx_right_out[14]
*31 chanx_right_out[15]
*32 chanx_right_out[16]
*33 chanx_right_out[17]
*34 chanx_right_out[18]
*35 chanx_right_out[19]
*36 chanx_right_out[1]
*37 chanx_right_out[2]
*38 chanx_right_out[3]
*39 chanx_right_out[4]
*40 chanx_right_out[5]
*41 chanx_right_out[6]
*42 chanx_right_out[7]
*43 chanx_right_out[8]
*44 chanx_right_out[9]
*45 chany_top_in[0]
*46 chany_top_in[10]
*47 chany_top_in[11]
*48 chany_top_in[12]
*49 chany_top_in[13]
*50 chany_top_in[14]
*51 chany_top_in[15]
*52 chany_top_in[16]
*53 chany_top_in[17]
*54 chany_top_in[18]
*55 chany_top_in[19]
*56 chany_top_in[1]
*57 chany_top_in[2]
*58 chany_top_in[3]
*59 chany_top_in[4]
*60 chany_top_in[5]
*61 chany_top_in[6]
*62 chany_top_in[7]
*63 chany_top_in[8]
*64 chany_top_in[9]
*65 chany_top_out[0]
*66 chany_top_out[10]
*67 chany_top_out[11]
*68 chany_top_out[12]
*69 chany_top_out[13]
*70 chany_top_out[14]
*71 chany_top_out[15]
*72 chany_top_out[16]
*73 chany_top_out[17]
*74 chany_top_out[18]
*75 chany_top_out[19]
*76 chany_top_out[1]
*77 chany_top_out[2]
*78 chany_top_out[3]
*79 chany_top_out[4]
*80 chany_top_out[5]
*81 chany_top_out[6]
*82 chany_top_out[7]
*83 chany_top_out[8]
*84 chany_top_out[9]
*85 prog_clk_0_E_in
*86 right_bottom_grid_pin_11_
*87 right_bottom_grid_pin_13_
*88 right_bottom_grid_pin_15_
*89 right_bottom_grid_pin_17_
*90 right_bottom_grid_pin_1_
*91 right_bottom_grid_pin_3_
*92 right_bottom_grid_pin_5_
*93 right_bottom_grid_pin_7_
*94 right_bottom_grid_pin_9_
*95 top_left_grid_pin_1_
*96 _00_
*97 _01_
*98 _02_
*99 _03_
*100 _04_
*101 _05_
*102 _06_
*103 _07_
*104 _08_
*105 _09_
*106 _10_
*107 _11_
*108 _12_
*109 _13_
*110 _14_
*111 _15_
*112 _16_
*113 _17_
*114 _18_
*115 _19_
*116 _20_
*117 _21_
*118 _22_
*119 _23_
*120 mem_right_track_0\.ccff_head
*121 mem_right_track_0\.ccff_tail
*122 mem_right_track_0\.mem_out\[0\]
*123 mem_right_track_0\.mem_out\[1\]
*124 mem_right_track_0\.prog_clk
*125 mem_right_track_10\.ccff_head
*126 mem_right_track_10\.ccff_tail
*127 mem_right_track_10\.mem_out\[0\]
*128 mem_right_track_12\.ccff_tail
*129 mem_right_track_12\.mem_out\[0\]
*130 mem_right_track_14\.ccff_tail
*131 mem_right_track_14\.mem_out\[0\]
*132 mem_right_track_16\.ccff_tail
*133 mem_right_track_16\.mem_out\[0\]
*134 mem_right_track_18\.ccff_tail
*135 mem_right_track_18\.mem_out\[0\]
*136 mem_right_track_2\.ccff_tail
*137 mem_right_track_2\.mem_out\[0\]
*138 mem_right_track_2\.mem_out\[1\]
*139 mem_right_track_20\.ccff_tail
*140 mem_right_track_20\.mem_out\[0\]
*141 mem_right_track_22\.ccff_tail
*142 mem_right_track_22\.mem_out\[0\]
*143 mem_right_track_24\.ccff_tail
*144 mem_right_track_24\.mem_out\[0\]
*145 mem_right_track_26\.ccff_tail
*146 mem_right_track_26\.mem_out\[0\]
*147 mem_right_track_28\.ccff_tail
*148 mem_right_track_28\.mem_out\[0\]
*149 mem_right_track_30\.ccff_tail
*150 mem_right_track_30\.mem_out\[0\]
*151 mem_right_track_32\.ccff_tail
*152 mem_right_track_32\.mem_out\[0\]
*153 mem_right_track_34\.ccff_tail
*154 mem_right_track_34\.mem_out\[0\]
*155 mem_right_track_36\.ccff_tail
*156 mem_right_track_36\.mem_out\[0\]
*157 mem_right_track_38\.mem_out\[0\]
*158 mem_right_track_4\.ccff_tail
*159 mem_right_track_4\.mem_out\[0\]
*160 mem_right_track_4\.mem_out\[1\]
*161 mem_right_track_6\.ccff_tail
*162 mem_right_track_6\.mem_out\[0\]
*163 mem_right_track_6\.mem_out\[1\]
*164 mem_right_track_8\.mem_out\[0\]
*165 mem_top_track_0\.ccff_tail
*166 mem_top_track_0\.mem_out\[0\]
*167 mem_top_track_24\.ccff_head
*168 mem_top_track_24\.mem_out\[0\]
*169 mem_top_track_4\.ccff_tail
*170 mem_top_track_4\.mem_out\[0\]
*171 mem_top_track_8\.mem_out\[0\]
*172 mux_right_track_0\.out
*173 mux_right_track_0\.sky130_fd_sc_hd__mux2_1_0_X
*174 mux_right_track_0\.sky130_fd_sc_hd__mux2_1_1_X
*175 mux_right_track_0\.sky130_fd_sc_hd__mux2_1_2_X
*176 mux_right_track_0\.sky130_fd_sc_hd__mux2_1_3_X
*177 mux_right_track_0\.sky130_fd_sc_hd__mux2_1_4_X
*178 mux_right_track_0\.sky130_fd_sc_hd__mux2_1_5_X
*179 mux_right_track_10\.out
*180 mux_right_track_10\.sky130_fd_sc_hd__mux2_1_0_X
*181 mux_right_track_10\.sky130_fd_sc_hd__mux2_1_1_X
*182 mux_right_track_12\.out
*183 mux_right_track_12\.sky130_fd_sc_hd__mux2_1_0_X
*184 mux_right_track_12\.sky130_fd_sc_hd__mux2_1_1_X
*185 mux_right_track_14\.out
*186 mux_right_track_14\.sky130_fd_sc_hd__mux2_1_0_X
*187 mux_right_track_14\.sky130_fd_sc_hd__mux2_1_1_X
*188 mux_right_track_16\.out
*189 mux_right_track_16\.sky130_fd_sc_hd__mux2_1_0_X
*190 mux_right_track_16\.sky130_fd_sc_hd__mux2_1_1_X
*191 mux_right_track_18\.out
*192 mux_right_track_18\.sky130_fd_sc_hd__mux2_1_0_X
*193 mux_right_track_18\.sky130_fd_sc_hd__mux2_1_1_X
*194 mux_right_track_2\.out
*195 mux_right_track_2\.sky130_fd_sc_hd__mux2_1_0_X
*196 mux_right_track_2\.sky130_fd_sc_hd__mux2_1_1_X
*197 mux_right_track_2\.sky130_fd_sc_hd__mux2_1_2_X
*198 mux_right_track_2\.sky130_fd_sc_hd__mux2_1_3_X
*199 mux_right_track_2\.sky130_fd_sc_hd__mux2_1_4_X
*200 mux_right_track_20\.out
*201 mux_right_track_20\.sky130_fd_sc_hd__mux2_1_0_X
*202 mux_right_track_20\.sky130_fd_sc_hd__mux2_1_1_X
*203 mux_right_track_22\.out
*204 mux_right_track_22\.sky130_fd_sc_hd__mux2_1_0_X
*205 mux_right_track_22\.sky130_fd_sc_hd__mux2_1_1_X
*206 mux_right_track_24\.out
*207 mux_right_track_24\.sky130_fd_sc_hd__mux2_1_0_X
*208 mux_right_track_24\.sky130_fd_sc_hd__mux2_1_1_X
*209 mux_right_track_24\.sky130_fd_sc_hd__mux2_1_2_X
*210 mux_right_track_26\.out
*211 mux_right_track_26\.sky130_fd_sc_hd__mux2_1_0_X
*212 mux_right_track_26\.sky130_fd_sc_hd__mux2_1_1_X
*213 mux_right_track_28\.out
*214 mux_right_track_28\.sky130_fd_sc_hd__mux2_1_0_X
*215 mux_right_track_28\.sky130_fd_sc_hd__mux2_1_1_X
*216 mux_right_track_30\.out
*217 mux_right_track_30\.sky130_fd_sc_hd__mux2_1_0_X
*218 mux_right_track_30\.sky130_fd_sc_hd__mux2_1_1_X
*219 mux_right_track_32\.out
*220 mux_right_track_32\.sky130_fd_sc_hd__mux2_1_0_X
*221 mux_right_track_32\.sky130_fd_sc_hd__mux2_1_1_X
*222 mux_right_track_34\.out
*223 mux_right_track_34\.sky130_fd_sc_hd__mux2_1_0_X
*224 mux_right_track_34\.sky130_fd_sc_hd__mux2_1_1_X
*225 mux_right_track_36\.out
*226 mux_right_track_36\.sky130_fd_sc_hd__mux2_1_0_X
*227 mux_right_track_36\.sky130_fd_sc_hd__mux2_1_1_X
*228 mux_right_track_38\.out
*229 mux_right_track_38\.sky130_fd_sc_hd__mux2_1_0_X
*230 mux_right_track_38\.sky130_fd_sc_hd__mux2_1_1_X
*231 mux_right_track_4\.out
*232 mux_right_track_4\.sky130_fd_sc_hd__mux2_1_0_X
*233 mux_right_track_4\.sky130_fd_sc_hd__mux2_1_1_X
*234 mux_right_track_4\.sky130_fd_sc_hd__mux2_1_2_X
*235 mux_right_track_4\.sky130_fd_sc_hd__mux2_1_3_X
*236 mux_right_track_4\.sky130_fd_sc_hd__mux2_1_4_X
*237 mux_right_track_4\.sky130_fd_sc_hd__mux2_1_5_X
*238 mux_right_track_6\.out
*239 mux_right_track_6\.sky130_fd_sc_hd__mux2_1_0_X
*240 mux_right_track_6\.sky130_fd_sc_hd__mux2_1_1_X
*241 mux_right_track_6\.sky130_fd_sc_hd__mux2_1_2_X
*242 mux_right_track_6\.sky130_fd_sc_hd__mux2_1_3_X
*243 mux_right_track_6\.sky130_fd_sc_hd__mux2_1_4_X
*244 mux_right_track_8\.out
*245 mux_right_track_8\.sky130_fd_sc_hd__mux2_1_0_X
*246 mux_right_track_8\.sky130_fd_sc_hd__mux2_1_1_X
*247 mux_right_track_8\.sky130_fd_sc_hd__mux2_1_2_X
*248 mux_top_track_0\.out
*249 mux_top_track_0\.sky130_fd_sc_hd__mux2_1_0_X
*250 mux_top_track_0\.sky130_fd_sc_hd__mux2_1_1_X
*251 mux_top_track_24\.out
*252 mux_top_track_24\.sky130_fd_sc_hd__mux2_1_0_X
*253 mux_top_track_24\.sky130_fd_sc_hd__mux2_1_1_X
*254 mux_top_track_4\.out
*255 mux_top_track_4\.sky130_fd_sc_hd__mux2_1_0_X
*256 mux_top_track_4\.sky130_fd_sc_hd__mux2_1_1_X
*257 mux_top_track_8\.out
*258 mux_top_track_8\.sky130_fd_sc_hd__mux2_1_0_X
*259 mux_top_track_8\.sky130_fd_sc_hd__mux2_1_1_X
*260 ANTENNA__69__A
*261 ANTENNA__71__A
*262 ANTENNA__73__A
*263 ANTENNA__74__A
*264 ANTENNA__75__A
*265 ANTENNA__76__A
*266 ANTENNA__77__A
*267 ANTENNA__78__A
*268 ANTENNA__79__A
*269 ANTENNA__81__A
*270 ANTENNA__82__A
*271 ANTENNA__83__A
*272 ANTENNA__84__A
*273 ANTENNA__85__A
*274 ANTENNA__86__A
*275 ANTENNA__87__A
*276 ANTENNA_mem_right_track_0\.sky130_fd_sc_hd__dfxtp_1_0__CLK
*277 ANTENNA_mem_right_track_0\.sky130_fd_sc_hd__dfxtp_1_1__CLK
*278 ANTENNA_mem_right_track_0\.sky130_fd_sc_hd__dfxtp_1_1__D
*279 ANTENNA_mem_right_track_0\.sky130_fd_sc_hd__dfxtp_1_2__CLK
*280 ANTENNA_mem_right_track_10\.sky130_fd_sc_hd__dfxtp_1_0__CLK
*281 ANTENNA_mem_right_track_10\.sky130_fd_sc_hd__dfxtp_1_1__CLK
*282 ANTENNA_mem_right_track_12\.sky130_fd_sc_hd__dfxtp_1_0__CLK
*283 ANTENNA_mem_right_track_12\.sky130_fd_sc_hd__dfxtp_1_1__CLK
*284 ANTENNA_mem_right_track_14\.sky130_fd_sc_hd__dfxtp_1_0__CLK
*285 ANTENNA_mem_right_track_14\.sky130_fd_sc_hd__dfxtp_1_0__D
*286 ANTENNA_mem_right_track_14\.sky130_fd_sc_hd__dfxtp_1_1__CLK
*287 ANTENNA_mem_right_track_16\.sky130_fd_sc_hd__dfxtp_1_0__CLK
*288 ANTENNA_mem_right_track_16\.sky130_fd_sc_hd__dfxtp_1_1__CLK
*289 ANTENNA_mem_right_track_18\.sky130_fd_sc_hd__dfxtp_1_0__CLK
*290 ANTENNA_mem_right_track_18\.sky130_fd_sc_hd__dfxtp_1_1__CLK
*291 ANTENNA_mem_right_track_2\.sky130_fd_sc_hd__dfxtp_1_0__CLK
*292 ANTENNA_mem_right_track_2\.sky130_fd_sc_hd__dfxtp_1_1__CLK
*293 ANTENNA_mem_right_track_2\.sky130_fd_sc_hd__dfxtp_1_2__CLK
*294 ANTENNA_mem_right_track_20\.sky130_fd_sc_hd__dfxtp_1_0__CLK
*295 ANTENNA_mem_right_track_20\.sky130_fd_sc_hd__dfxtp_1_1__CLK
*296 ANTENNA_mem_right_track_22\.sky130_fd_sc_hd__dfxtp_1_0__CLK
*297 ANTENNA_mem_right_track_22\.sky130_fd_sc_hd__dfxtp_1_1__CLK
*298 ANTENNA_mem_right_track_24\.sky130_fd_sc_hd__dfxtp_1_0__CLK
*299 ANTENNA_mem_right_track_24\.sky130_fd_sc_hd__dfxtp_1_1__CLK
*300 ANTENNA_mem_right_track_26\.sky130_fd_sc_hd__dfxtp_1_0__CLK
*301 ANTENNA_mem_right_track_26\.sky130_fd_sc_hd__dfxtp_1_1__CLK
*302 ANTENNA_mem_right_track_28\.sky130_fd_sc_hd__dfxtp_1_0__CLK
*303 ANTENNA_mem_right_track_28\.sky130_fd_sc_hd__dfxtp_1_1__CLK
*304 ANTENNA_mem_right_track_30\.sky130_fd_sc_hd__dfxtp_1_0__CLK
*305 ANTENNA_mem_right_track_30\.sky130_fd_sc_hd__dfxtp_1_1__CLK
*306 ANTENNA_mem_right_track_32\.sky130_fd_sc_hd__dfxtp_1_0__CLK
*307 ANTENNA_mem_right_track_32\.sky130_fd_sc_hd__dfxtp_1_1__CLK
*308 ANTENNA_mem_right_track_34\.sky130_fd_sc_hd__dfxtp_1_0__CLK
*309 ANTENNA_mem_right_track_34\.sky130_fd_sc_hd__dfxtp_1_1__CLK
*310 ANTENNA_mem_right_track_36\.sky130_fd_sc_hd__dfxtp_1_0__CLK
*311 ANTENNA_mem_right_track_36\.sky130_fd_sc_hd__dfxtp_1_1__CLK
*312 ANTENNA_mem_right_track_38\.sky130_fd_sc_hd__dfxtp_1_0__CLK
*313 ANTENNA_mem_right_track_38\.sky130_fd_sc_hd__dfxtp_1_1__CLK
*314 ANTENNA_mem_right_track_4\.sky130_fd_sc_hd__dfxtp_1_0__CLK
*315 ANTENNA_mem_right_track_4\.sky130_fd_sc_hd__dfxtp_1_1__CLK
*316 ANTENNA_mem_right_track_4\.sky130_fd_sc_hd__dfxtp_1_2__CLK
*317 ANTENNA_mem_right_track_4\.sky130_fd_sc_hd__dfxtp_1_2__D
*318 ANTENNA_mem_right_track_6\.sky130_fd_sc_hd__dfxtp_1_0__CLK
*319 ANTENNA_mem_right_track_6\.sky130_fd_sc_hd__dfxtp_1_1__CLK
*320 ANTENNA_mem_right_track_6\.sky130_fd_sc_hd__dfxtp_1_2__CLK
*321 ANTENNA_mem_right_track_8\.sky130_fd_sc_hd__dfxtp_1_0__CLK
*322 ANTENNA_mem_right_track_8\.sky130_fd_sc_hd__dfxtp_1_1__CLK
*323 ANTENNA_mem_top_track_0\.sky130_fd_sc_hd__dfxtp_1_0__CLK
*324 ANTENNA_mem_top_track_0\.sky130_fd_sc_hd__dfxtp_1_0__D
*325 ANTENNA_mem_top_track_0\.sky130_fd_sc_hd__dfxtp_1_1__CLK
*326 ANTENNA_mem_top_track_24\.sky130_fd_sc_hd__dfxtp_1_0__CLK
*327 ANTENNA_mem_top_track_24\.sky130_fd_sc_hd__dfxtp_1_1__CLK
*328 ANTENNA_mem_top_track_4\.sky130_fd_sc_hd__dfxtp_1_0__CLK
*329 ANTENNA_mem_top_track_4\.sky130_fd_sc_hd__dfxtp_1_1__CLK
*330 ANTENNA_mem_top_track_8\.sky130_fd_sc_hd__dfxtp_1_0__CLK
*331 ANTENNA_mem_top_track_8\.sky130_fd_sc_hd__dfxtp_1_1__CLK
*332 ANTENNA_mux_right_track_0\.mux_l1_in_0__A0
*333 ANTENNA_mux_right_track_0\.mux_l1_in_0__A1
*334 ANTENNA_mux_right_track_0\.mux_l1_in_0__S
*335 ANTENNA_mux_right_track_0\.mux_l1_in_1__A0
*336 ANTENNA_mux_right_track_0\.mux_l1_in_1__A1
*337 ANTENNA_mux_right_track_0\.mux_l1_in_1__S
*338 ANTENNA_mux_right_track_0\.mux_l1_in_2__A0
*339 ANTENNA_mux_right_track_0\.mux_l1_in_2__A1
*340 ANTENNA_mux_right_track_0\.mux_l1_in_2__S
*341 ANTENNA_mux_right_track_10\.mux_l1_in_0__A0
*342 ANTENNA_mux_right_track_10\.mux_l1_in_0__A1
*343 ANTENNA_mux_right_track_12\.mux_l1_in_0__A0
*344 ANTENNA_mux_right_track_12\.mux_l1_in_0__A1
*345 ANTENNA_mux_right_track_12\.mux_l2_in_0__S
*346 ANTENNA_mux_right_track_14\.mux_l1_in_0__A0
*347 ANTENNA_mux_right_track_14\.mux_l1_in_0__A1
*348 ANTENNA_mux_right_track_16\.mux_l1_in_0__A0
*349 ANTENNA_mux_right_track_16\.mux_l1_in_0__A1
*350 ANTENNA_mux_right_track_18\.mux_l1_in_0__A0
*351 ANTENNA_mux_right_track_18\.mux_l1_in_0__A1
*352 ANTENNA_mux_right_track_2\.mux_l1_in_0__A0
*353 ANTENNA_mux_right_track_2\.mux_l1_in_0__A1
*354 ANTENNA_mux_right_track_2\.mux_l1_in_1__A0
*355 ANTENNA_mux_right_track_2\.mux_l1_in_1__A1
*356 ANTENNA_mux_right_track_2\.mux_l2_in_1__A1
*357 ANTENNA_mux_right_track_20\.mux_l1_in_0__A0
*358 ANTENNA_mux_right_track_20\.mux_l1_in_0__A1
*359 ANTENNA_mux_right_track_22\.mux_l1_in_0__A0
*360 ANTENNA_mux_right_track_22\.mux_l1_in_0__A1
*361 ANTENNA_mux_right_track_24\.mux_l1_in_0__A0
*362 ANTENNA_mux_right_track_24\.mux_l1_in_0__A1
*363 ANTENNA_mux_right_track_24\.mux_l1_in_1__A1
*364 ANTENNA_mux_right_track_26\.mux_l1_in_0__A0
*365 ANTENNA_mux_right_track_26\.mux_l1_in_0__A1
*366 ANTENNA_mux_right_track_28\.mux_l1_in_0__A0
*367 ANTENNA_mux_right_track_28\.mux_l1_in_0__A1
*368 ANTENNA_mux_right_track_30\.mux_l1_in_0__A0
*369 ANTENNA_mux_right_track_30\.mux_l1_in_0__A1
*370 ANTENNA_mux_right_track_32\.mux_l1_in_0__A0
*371 ANTENNA_mux_right_track_32\.mux_l1_in_0__A1
*372 ANTENNA_mux_right_track_34\.mux_l1_in_0__A0
*373 ANTENNA_mux_right_track_34\.mux_l1_in_0__A1
*374 ANTENNA_mux_right_track_36\.mux_l1_in_0__A0
*375 ANTENNA_mux_right_track_36\.mux_l1_in_0__A1
*376 ANTENNA_mux_right_track_38\.mux_l1_in_0__A0
*377 ANTENNA_mux_right_track_38\.mux_l1_in_0__A1
*378 ANTENNA_mux_right_track_4\.mux_l1_in_0__A0
*379 ANTENNA_mux_right_track_4\.mux_l1_in_0__A1
*380 ANTENNA_mux_right_track_4\.mux_l1_in_1__A0
*381 ANTENNA_mux_right_track_4\.mux_l1_in_1__A1
*382 ANTENNA_mux_right_track_4\.mux_l1_in_2__A0
*383 ANTENNA_mux_right_track_4\.mux_l1_in_2__A1
*384 ANTENNA_mux_right_track_4\.mux_l2_in_0__S
*385 ANTENNA_mux_right_track_4\.mux_l2_in_1__S
*386 ANTENNA_mux_right_track_6\.mux_l1_in_0__A0
*387 ANTENNA_mux_right_track_6\.mux_l1_in_0__A1
*388 ANTENNA_mux_right_track_6\.mux_l1_in_1__A0
*389 ANTENNA_mux_right_track_6\.mux_l1_in_1__A1
*390 ANTENNA_mux_right_track_6\.mux_l2_in_1__A1
*391 ANTENNA_mux_right_track_8\.mux_l1_in_0__A0
*392 ANTENNA_mux_right_track_8\.mux_l1_in_0__A1
*393 ANTENNA_mux_right_track_8\.mux_l1_in_1__A1
*394 ANTENNA_mux_top_track_0\.mux_l1_in_0__A0
*395 ANTENNA_mux_top_track_0\.mux_l1_in_0__A1
*396 ANTENNA_mux_top_track_24\.mux_l1_in_0__A0
*397 ANTENNA_mux_top_track_24\.mux_l1_in_0__A1
*398 ANTENNA_mux_top_track_4\.mux_l1_in_0__A0
*399 ANTENNA_mux_top_track_4\.mux_l1_in_0__A1
*400 ANTENNA_mux_top_track_8\.mux_l1_in_0__A0
*401 ANTENNA_mux_top_track_8\.mux_l1_in_0__A1
*402 ANTENNA_prog_clk_0_FTB00_A
*403 FILLER_0_109
*404 FILLER_0_113
*405 FILLER_0_125
*406 FILLER_0_137
*407 FILLER_0_141
*408 FILLER_0_15
*409 FILLER_0_153
*410 FILLER_0_165
*411 FILLER_0_169
*412 FILLER_0_181
*413 FILLER_0_193
*414 FILLER_0_197
*415 FILLER_0_209
*416 FILLER_0_221
*417 FILLER_0_27
*418 FILLER_0_29
*419 FILLER_0_3
*420 FILLER_0_41
*421 FILLER_0_53
*422 FILLER_0_57
*423 FILLER_0_69
*424 FILLER_0_81
*425 FILLER_0_85
*426 FILLER_0_97
*427 FILLER_10_106
*428 FILLER_10_118
*429 FILLER_10_123
*430 FILLER_10_135
*431 FILLER_10_139
*432 FILLER_10_141
*433 FILLER_10_15
*434 FILLER_10_153
*435 FILLER_10_165
*436 FILLER_10_171
*437 FILLER_10_182
*438 FILLER_10_187
*439 FILLER_10_191
*440 FILLER_10_195
*441 FILLER_10_199
*442 FILLER_10_211
*443 FILLER_10_216
*444 FILLER_10_220
*445 FILLER_10_27
*446 FILLER_10_29
*447 FILLER_10_3
*448 FILLER_10_41
*449 FILLER_10_53
*450 FILLER_10_65
*451 FILLER_10_69
*452 FILLER_10_79
*453 FILLER_10_83
*454 FILLER_10_85
*455 FILLER_10_89
*456 FILLER_10_96
*457 FILLER_11_104
*458 FILLER_11_109
*459 FILLER_11_122
*460 FILLER_11_133
*461 FILLER_11_138
*462 FILLER_11_15
*463 FILLER_11_153
*464 FILLER_11_162
*465 FILLER_11_169
*466 FILLER_11_182
*467 FILLER_11_193
*468 FILLER_11_199
*469 FILLER_11_207
*470 FILLER_11_213
*471 FILLER_11_217
*472 FILLER_11_221
*473 FILLER_11_27
*474 FILLER_11_3
*475 FILLER_11_39
*476 FILLER_11_51
*477 FILLER_11_55
*478 FILLER_11_57
*479 FILLER_11_63
*480 FILLER_11_74
*481 FILLER_11_78
*482 FILLER_11_93
*483 FILLER_12_103
*484 FILLER_12_115
*485 FILLER_12_121
*486 FILLER_12_124
*487 FILLER_12_134
*488 FILLER_12_141
*489 FILLER_12_144
*490 FILLER_12_15
*491 FILLER_12_152
*492 FILLER_12_163
*493 FILLER_12_167
*494 FILLER_12_173
*495 FILLER_12_184
*496 FILLER_12_188
*497 FILLER_12_201
*498 FILLER_12_207
*499 FILLER_12_213
*500 FILLER_12_217
*501 FILLER_12_221
*502 FILLER_12_27
*503 FILLER_12_29
*504 FILLER_12_3
*505 FILLER_12_41
*506 FILLER_12_56
*507 FILLER_12_61
*508 FILLER_12_65
*509 FILLER_12_77
*510 FILLER_12_83
*511 FILLER_12_91
*512 FILLER_13_109
*513 FILLER_13_113
*514 FILLER_13_125
*515 FILLER_13_137
*516 FILLER_13_145
*517 FILLER_13_15
*518 FILLER_13_154
*519 FILLER_13_160
*520 FILLER_13_169
*521 FILLER_13_181
*522 FILLER_13_193
*523 FILLER_13_201
*524 FILLER_13_206
*525 FILLER_13_210
*526 FILLER_13_215
*527 FILLER_13_221
*528 FILLER_13_27
*529 FILLER_13_3
*530 FILLER_13_39
*531 FILLER_13_51
*532 FILLER_13_55
*533 FILLER_13_57
*534 FILLER_13_65
*535 FILLER_13_70
*536 FILLER_13_81
*537 FILLER_13_85
*538 FILLER_13_97
*539 FILLER_14_104
*540 FILLER_14_112
*541 FILLER_14_130
*542 FILLER_14_134
*543 FILLER_14_141
*544 FILLER_14_15
*545 FILLER_14_169
*546 FILLER_14_173
*547 FILLER_14_177
*548 FILLER_14_189
*549 FILLER_14_195
*550 FILLER_14_197
*551 FILLER_14_209
*552 FILLER_14_217
*553 FILLER_14_221
*554 FILLER_14_27
*555 FILLER_14_29
*556 FILLER_14_3
*557 FILLER_14_41
*558 FILLER_14_53
*559 FILLER_14_68
*560 FILLER_14_82
*561 FILLER_14_85
*562 FILLER_14_95
*563 FILLER_15_104
*564 FILLER_15_129
*565 FILLER_15_133
*566 FILLER_15_15
*567 FILLER_15_152
*568 FILLER_15_156
*569 FILLER_15_159
*570 FILLER_15_163
*571 FILLER_15_167
*572 FILLER_15_169
*573 FILLER_15_187
*574 FILLER_15_191
*575 FILLER_15_219
*576 FILLER_15_27
*577 FILLER_15_3
*578 FILLER_15_39
*579 FILLER_15_51
*580 FILLER_15_55
*581 FILLER_15_57
*582 FILLER_15_68
*583 FILLER_15_79
*584 FILLER_15_83
*585 FILLER_15_92
*586 FILLER_16_104
*587 FILLER_16_110
*588 FILLER_16_127
*589 FILLER_16_131
*590 FILLER_16_139
*591 FILLER_16_15
*592 FILLER_16_157
*593 FILLER_16_177
*594 FILLER_16_181
*595 FILLER_16_189
*596 FILLER_16_194
*597 FILLER_16_213
*598 FILLER_16_217
*599 FILLER_16_27
*600 FILLER_16_29
*601 FILLER_16_3
*602 FILLER_16_41
*603 FILLER_16_53
*604 FILLER_16_65
*605 FILLER_16_70
*606 FILLER_16_82
*607 FILLER_16_85
*608 FILLER_16_89
*609 FILLER_16_99
*610 FILLER_17_102
*611 FILLER_17_110
*612 FILLER_17_113
*613 FILLER_17_125
*614 FILLER_17_145
*615 FILLER_17_149
*616 FILLER_17_15
*617 FILLER_17_161
*618 FILLER_17_167
*619 FILLER_17_169
*620 FILLER_17_175
*621 FILLER_17_192
*622 FILLER_17_210
*623 FILLER_17_214
*624 FILLER_17_218
*625 FILLER_17_221
*626 FILLER_17_27
*627 FILLER_17_3
*628 FILLER_17_39
*629 FILLER_17_51
*630 FILLER_17_55
*631 FILLER_17_66
*632 FILLER_17_78
*633 FILLER_17_90
*634 FILLER_18_100
*635 FILLER_18_112
*636 FILLER_18_124
*637 FILLER_18_136
*638 FILLER_18_141
*639 FILLER_18_15
*640 FILLER_18_153
*641 FILLER_18_165
*642 FILLER_18_177
*643 FILLER_18_189
*644 FILLER_18_195
*645 FILLER_18_197
*646 FILLER_18_202
*647 FILLER_18_220
*648 FILLER_18_27
*649 FILLER_18_29
*650 FILLER_18_3
*651 FILLER_18_41
*652 FILLER_18_49
*653 FILLER_18_54
*654 FILLER_18_66
*655 FILLER_18_78
*656 FILLER_18_85
*657 FILLER_18_93
*658 FILLER_19_106
*659 FILLER_19_113
*660 FILLER_19_131
*661 FILLER_19_135
*662 FILLER_19_147
*663 FILLER_19_15
*664 FILLER_19_159
*665 FILLER_19_167
*666 FILLER_19_185
*667 FILLER_19_189
*668 FILLER_19_197
*669 FILLER_19_203
*670 FILLER_19_221
*671 FILLER_19_27
*672 FILLER_19_3
*673 FILLER_19_39
*674 FILLER_19_51
*675 FILLER_19_55
*676 FILLER_19_57
*677 FILLER_19_69
*678 FILLER_19_81
*679 FILLER_19_93
*680 FILLER_1_105
*681 FILLER_1_111
*682 FILLER_1_113
*683 FILLER_1_125
*684 FILLER_1_137
*685 FILLER_1_149
*686 FILLER_1_15
*687 FILLER_1_154
*688 FILLER_1_158
*689 FILLER_1_162
*690 FILLER_1_165
*691 FILLER_1_169
*692 FILLER_1_181
*693 FILLER_1_193
*694 FILLER_1_205
*695 FILLER_1_217
*696 FILLER_1_27
*697 FILLER_1_3
*698 FILLER_1_39
*699 FILLER_1_51
*700 FILLER_1_55
*701 FILLER_1_57
*702 FILLER_1_69
*703 FILLER_1_81
*704 FILLER_1_93
*705 FILLER_20_104
*706 FILLER_20_108
*707 FILLER_20_114
*708 FILLER_20_131
*709 FILLER_20_135
*710 FILLER_20_139
*711 FILLER_20_141
*712 FILLER_20_147
*713 FILLER_20_15
*714 FILLER_20_164
*715 FILLER_20_168
*716 FILLER_20_187
*717 FILLER_20_191
*718 FILLER_20_195
*719 FILLER_20_213
*720 FILLER_20_219
*721 FILLER_20_27
*722 FILLER_20_29
*723 FILLER_20_3
*724 FILLER_20_41
*725 FILLER_20_49
*726 FILLER_20_54
*727 FILLER_20_65
*728 FILLER_20_69
*729 FILLER_20_81
*730 FILLER_20_94
*731 FILLER_20_98
*732 FILLER_21_100
*733 FILLER_21_104
*734 FILLER_21_113
*735 FILLER_21_119
*736 FILLER_21_136
*737 FILLER_21_140
*738 FILLER_21_15
*739 FILLER_21_152
*740 FILLER_21_164
*741 FILLER_21_169
*742 FILLER_21_181
*743 FILLER_21_193
*744 FILLER_21_196
*745 FILLER_21_208
*746 FILLER_21_212
*747 FILLER_21_215
*748 FILLER_21_221
*749 FILLER_21_27
*750 FILLER_21_3
*751 FILLER_21_39
*752 FILLER_21_51
*753 FILLER_21_55
*754 FILLER_21_57
*755 FILLER_21_67
*756 FILLER_21_78
*757 FILLER_21_82
*758 FILLER_21_86
*759 FILLER_21_96
*760 FILLER_22_102
*761 FILLER_22_106
*762 FILLER_22_130
*763 FILLER_22_134
*764 FILLER_22_15
*765 FILLER_22_157
*766 FILLER_22_161
*767 FILLER_22_173
*768 FILLER_22_176
*769 FILLER_22_194
*770 FILLER_22_197
*771 FILLER_22_214
*772 FILLER_22_218
*773 FILLER_22_222
*774 FILLER_22_27
*775 FILLER_22_29
*776 FILLER_22_3
*777 FILLER_22_41
*778 FILLER_22_47
*779 FILLER_22_51
*780 FILLER_22_63
*781 FILLER_22_71
*782 FILLER_22_82
*783 FILLER_22_88
*784 FILLER_22_92
*785 FILLER_23_105
*786 FILLER_23_111
*787 FILLER_23_113
*788 FILLER_23_125
*789 FILLER_23_137
*790 FILLER_23_15
*791 FILLER_23_165
*792 FILLER_23_171
*793 FILLER_23_176
*794 FILLER_23_188
*795 FILLER_23_200
*796 FILLER_23_219
*797 FILLER_23_27
*798 FILLER_23_3
*799 FILLER_23_39
*800 FILLER_23_54
*801 FILLER_23_57
*802 FILLER_23_68
*803 FILLER_23_72
*804 FILLER_23_76
*805 FILLER_23_88
*806 FILLER_23_93
*807 FILLER_24_109
*808 FILLER_24_133
*809 FILLER_24_137
*810 FILLER_24_141
*811 FILLER_24_15
*812 FILLER_24_153
*813 FILLER_24_157
*814 FILLER_24_174
*815 FILLER_24_194
*816 FILLER_24_199
*817 FILLER_24_211
*818 FILLER_24_221
*819 FILLER_24_27
*820 FILLER_24_29
*821 FILLER_24_3
*822 FILLER_24_41
*823 FILLER_24_53
*824 FILLER_24_65
*825 FILLER_24_77
*826 FILLER_24_83
*827 FILLER_24_85
*828 FILLER_24_97
*829 FILLER_25_106
*830 FILLER_25_113
*831 FILLER_25_133
*832 FILLER_25_137
*833 FILLER_25_149
*834 FILLER_25_15
*835 FILLER_25_161
*836 FILLER_25_167
*837 FILLER_25_169
*838 FILLER_25_183
*839 FILLER_25_195
*840 FILLER_25_203
*841 FILLER_25_221
*842 FILLER_25_27
*843 FILLER_25_3
*844 FILLER_25_39
*845 FILLER_25_47
*846 FILLER_25_51
*847 FILLER_25_55
*848 FILLER_25_57
*849 FILLER_25_62
*850 FILLER_25_67
*851 FILLER_25_78
*852 FILLER_25_82
*853 FILLER_25_94
*854 FILLER_26_101
*855 FILLER_26_106
*856 FILLER_26_130
*857 FILLER_26_134
*858 FILLER_26_15
*859 FILLER_26_157
*860 FILLER_26_161
*861 FILLER_26_181
*862 FILLER_26_185
*863 FILLER_26_192
*864 FILLER_26_197
*865 FILLER_26_209
*866 FILLER_26_217
*867 FILLER_26_221
*868 FILLER_26_27
*869 FILLER_26_29
*870 FILLER_26_3
*871 FILLER_26_41
*872 FILLER_26_46
*873 FILLER_26_50
*874 FILLER_26_60
*875 FILLER_26_71
*876 FILLER_26_75
*877 FILLER_26_83
*878 FILLER_26_85
*879 FILLER_26_91
*880 FILLER_27_100
*881 FILLER_27_105
*882 FILLER_27_111
*883 FILLER_27_129
*884 FILLER_27_133
*885 FILLER_27_15
*886 FILLER_27_157
*887 FILLER_27_161
*888 FILLER_27_167
*889 FILLER_27_185
*890 FILLER_27_189
*891 FILLER_27_197
*892 FILLER_27_216
*893 FILLER_27_220
*894 FILLER_27_27
*895 FILLER_27_3
*896 FILLER_27_38
*897 FILLER_27_44
*898 FILLER_27_54
*899 FILLER_27_60
*900 FILLER_27_64
*901 FILLER_27_76
*902 FILLER_27_88
*903 FILLER_28_103
*904 FILLER_28_115
*905 FILLER_28_132
*906 FILLER_28_136
*907 FILLER_28_141
*908 FILLER_28_15
*909 FILLER_28_153
*910 FILLER_28_172
*911 FILLER_28_176
*912 FILLER_28_188
*913 FILLER_28_197
*914 FILLER_28_219
*915 FILLER_28_27
*916 FILLER_28_3
*917 FILLER_28_38
*918 FILLER_28_51
*919 FILLER_28_55
*920 FILLER_28_59
*921 FILLER_28_71
*922 FILLER_28_83
*923 FILLER_28_85
*924 FILLER_28_95
*925 FILLER_28_99
*926 FILLER_29_100
*927 FILLER_29_113
*928 FILLER_29_117
*929 FILLER_29_120
*930 FILLER_29_138
*931 FILLER_29_142
*932 FILLER_29_15
*933 FILLER_29_154
*934 FILLER_29_166
*935 FILLER_29_169
*936 FILLER_29_181
*937 FILLER_29_200
*938 FILLER_29_204
*939 FILLER_29_209
*940 FILLER_29_215
*941 FILLER_29_221
*942 FILLER_29_27
*943 FILLER_29_3
*944 FILLER_29_41
*945 FILLER_29_53
*946 FILLER_29_57
*947 FILLER_29_68
*948 FILLER_29_73
*949 FILLER_29_81
*950 FILLER_29_84
*951 FILLER_29_95
*952 FILLER_2_101
*953 FILLER_2_105
*954 FILLER_2_109
*955 FILLER_2_112
*956 FILLER_2_124
*957 FILLER_2_136
*958 FILLER_2_141
*959 FILLER_2_15
*960 FILLER_2_152
*961 FILLER_2_163
*962 FILLER_2_171
*963 FILLER_2_175
*964 FILLER_2_187
*965 FILLER_2_195
*966 FILLER_2_197
*967 FILLER_2_209
*968 FILLER_2_221
*969 FILLER_2_27
*970 FILLER_2_29
*971 FILLER_2_3
*972 FILLER_2_41
*973 FILLER_2_53
*974 FILLER_2_65
*975 FILLER_2_77
*976 FILLER_2_83
*977 FILLER_2_85
*978 FILLER_2_93
*979 FILLER_2_97
*980 FILLER_30_103
*981 FILLER_30_120
*982 FILLER_30_138
*983 FILLER_30_143
*984 FILLER_30_149
*985 FILLER_30_15
*986 FILLER_30_166
*987 FILLER_30_170
*988 FILLER_30_192
*989 FILLER_30_199
*990 FILLER_30_203
*991 FILLER_30_220
*992 FILLER_30_27
*993 FILLER_30_3
*994 FILLER_30_35
*995 FILLER_30_45
*996 FILLER_30_57
*997 FILLER_30_69
*998 FILLER_30_82
*999 FILLER_30_91
*1000 FILLER_30_95
*1001 FILLER_31_107
*1002 FILLER_31_111
*1003 FILLER_31_129
*1004 FILLER_31_133
*1005 FILLER_31_145
*1006 FILLER_31_15
*1007 FILLER_31_157
*1008 FILLER_31_165
*1009 FILLER_31_169
*1010 FILLER_31_175
*1011 FILLER_31_192
*1012 FILLER_31_196
*1013 FILLER_31_200
*1014 FILLER_31_203
*1015 FILLER_31_209
*1016 FILLER_31_216
*1017 FILLER_31_221
*1018 FILLER_31_27
*1019 FILLER_31_3
*1020 FILLER_31_33
*1021 FILLER_31_45
*1022 FILLER_31_53
*1023 FILLER_31_57
*1024 FILLER_31_71
*1025 FILLER_31_83
*1026 FILLER_31_91
*1027 FILLER_31_98
*1028 FILLER_32_103
*1029 FILLER_32_108
*1030 FILLER_32_112
*1031 FILLER_32_117
*1032 FILLER_32_129
*1033 FILLER_32_137
*1034 FILLER_32_141
*1035 FILLER_32_15
*1036 FILLER_32_151
*1037 FILLER_32_157
*1038 FILLER_32_169
*1039 FILLER_32_174
*1040 FILLER_32_180
*1041 FILLER_32_186
*1042 FILLER_32_192
*1043 FILLER_32_201
*1044 FILLER_32_207
*1045 FILLER_32_221
*1046 FILLER_32_27
*1047 FILLER_32_29
*1048 FILLER_32_3
*1049 FILLER_32_37
*1050 FILLER_32_45
*1051 FILLER_32_53
*1052 FILLER_32_65
*1053 FILLER_32_70
*1054 FILLER_32_82
*1055 FILLER_32_91
*1056 FILLER_33_108
*1057 FILLER_33_113
*1058 FILLER_33_125
*1059 FILLER_33_137
*1060 FILLER_33_141
*1061 FILLER_33_15
*1062 FILLER_33_153
*1063 FILLER_33_165
*1064 FILLER_33_169
*1065 FILLER_33_176
*1066 FILLER_33_188
*1067 FILLER_33_194
*1068 FILLER_33_197
*1069 FILLER_33_203
*1070 FILLER_33_206
*1071 FILLER_33_210
*1072 FILLER_33_216
*1073 FILLER_33_220
*1074 FILLER_33_27
*1075 FILLER_33_29
*1076 FILLER_33_3
*1077 FILLER_33_41
*1078 FILLER_33_53
*1079 FILLER_33_57
*1080 FILLER_33_69
*1081 FILLER_33_81
*1082 FILLER_33_85
*1083 FILLER_33_91
*1084 FILLER_33_96
*1085 FILLER_3_110
*1086 FILLER_3_115
*1087 FILLER_3_122
*1088 FILLER_3_139
*1089 FILLER_3_143
*1090 FILLER_3_147
*1091 FILLER_3_15
*1092 FILLER_3_151
*1093 FILLER_3_155
*1094 FILLER_3_159
*1095 FILLER_3_167
*1096 FILLER_3_169
*1097 FILLER_3_181
*1098 FILLER_3_193
*1099 FILLER_3_205
*1100 FILLER_3_217
*1101 FILLER_3_27
*1102 FILLER_3_3
*1103 FILLER_3_39
*1104 FILLER_3_51
*1105 FILLER_3_55
*1106 FILLER_3_57
*1107 FILLER_3_69
*1108 FILLER_3_81
*1109 FILLER_3_87
*1110 FILLER_3_97
*1111 FILLER_4_110
*1112 FILLER_4_121
*1113 FILLER_4_132
*1114 FILLER_4_141
*1115 FILLER_4_15
*1116 FILLER_4_153
*1117 FILLER_4_165
*1118 FILLER_4_177
*1119 FILLER_4_189
*1120 FILLER_4_195
*1121 FILLER_4_197
*1122 FILLER_4_209
*1123 FILLER_4_221
*1124 FILLER_4_27
*1125 FILLER_4_29
*1126 FILLER_4_3
*1127 FILLER_4_41
*1128 FILLER_4_53
*1129 FILLER_4_65
*1130 FILLER_4_77
*1131 FILLER_4_83
*1132 FILLER_4_94
*1133 FILLER_4_98
*1134 FILLER_5_107
*1135 FILLER_5_111
*1136 FILLER_5_115
*1137 FILLER_5_123
*1138 FILLER_5_128
*1139 FILLER_5_139
*1140 FILLER_5_143
*1141 FILLER_5_15
*1142 FILLER_5_151
*1143 FILLER_5_163
*1144 FILLER_5_167
*1145 FILLER_5_169
*1146 FILLER_5_181
*1147 FILLER_5_193
*1148 FILLER_5_205
*1149 FILLER_5_217
*1150 FILLER_5_27
*1151 FILLER_5_3
*1152 FILLER_5_39
*1153 FILLER_5_51
*1154 FILLER_5_55
*1155 FILLER_5_57
*1156 FILLER_5_69
*1157 FILLER_5_77
*1158 FILLER_5_80
*1159 FILLER_5_91
*1160 FILLER_5_95
*1161 FILLER_6_101
*1162 FILLER_6_116
*1163 FILLER_6_131
*1164 FILLER_6_139
*1165 FILLER_6_147
*1166 FILLER_6_15