*SPEF "ieee 1481-1999"
*DESIGN "sb_0__2_"
*DATE "11:11:11 Fri 11 11, 1111"
*VENDOR "OpenRCX"
*PROGRAM "Parallel Extraction"
*VERSION "1.0"
*DESIGN_FLOW "NAME_SCOPE LOCAL" "PIN_CAP NONE"
*DIVIDER /
*DELIMITER :
*BUS_DELIMITER []
*T_UNIT 1 NS
*C_UNIT 1 PF
*R_UNIT 1 OHM
*L_UNIT 1 HENRY

*NAME_MAP
*1 SC_IN_TOP
*2 SC_OUT_BOT
*5 bottom_left_grid_pin_1_
*6 ccff_head
*7 ccff_tail
*8 chanx_right_in[0]
*9 chanx_right_in[10]
*10 chanx_right_in[11]
*11 chanx_right_in[12]
*12 chanx_right_in[13]
*13 chanx_right_in[14]
*14 chanx_right_in[15]
*15 chanx_right_in[16]
*16 chanx_right_in[17]
*17 chanx_right_in[18]
*18 chanx_right_in[19]
*19 chanx_right_in[1]
*20 chanx_right_in[2]
*21 chanx_right_in[3]
*22 chanx_right_in[4]
*23 chanx_right_in[5]
*24 chanx_right_in[6]
*25 chanx_right_in[7]
*26 chanx_right_in[8]
*27 chanx_right_in[9]
*28 chanx_right_out[0]
*29 chanx_right_out[10]
*30 chanx_right_out[11]
*31 chanx_right_out[12]
*32 chanx_right_out[13]
*33 chanx_right_out[14]
*34 chanx_right_out[15]
*35 chanx_right_out[16]
*36 chanx_right_out[17]
*37 chanx_right_out[18]
*38 chanx_right_out[19]
*39 chanx_right_out[1]
*40 chanx_right_out[2]
*41 chanx_right_out[3]
*42 chanx_right_out[4]
*43 chanx_right_out[5]
*44 chanx_right_out[6]
*45 chanx_right_out[7]
*46 chanx_right_out[8]
*47 chanx_right_out[9]
*48 chany_bottom_in[0]
*49 chany_bottom_in[10]
*50 chany_bottom_in[11]
*51 chany_bottom_in[12]
*52 chany_bottom_in[13]
*53 chany_bottom_in[14]
*54 chany_bottom_in[15]
*55 chany_bottom_in[16]
*56 chany_bottom_in[17]
*57 chany_bottom_in[18]
*58 chany_bottom_in[19]
*59 chany_bottom_in[1]
*60 chany_bottom_in[2]
*61 chany_bottom_in[3]
*62 chany_bottom_in[4]
*63 chany_bottom_in[5]
*64 chany_bottom_in[6]
*65 chany_bottom_in[7]
*66 chany_bottom_in[8]
*67 chany_bottom_in[9]
*68 chany_bottom_out[0]
*69 chany_bottom_out[10]
*70 chany_bottom_out[11]
*71 chany_bottom_out[12]
*72 chany_bottom_out[13]
*73 chany_bottom_out[14]
*74 chany_bottom_out[15]
*75 chany_bottom_out[16]
*76 chany_bottom_out[17]
*77 chany_bottom_out[18]
*78 chany_bottom_out[19]
*79 chany_bottom_out[1]
*80 chany_bottom_out[2]
*81 chany_bottom_out[3]
*82 chany_bottom_out[4]
*83 chany_bottom_out[5]
*84 chany_bottom_out[6]
*85 chany_bottom_out[7]
*86 chany_bottom_out[8]
*87 chany_bottom_out[9]
*88 prog_clk_0_E_in
*89 right_bottom_grid_pin_34_
*90 right_bottom_grid_pin_35_
*91 right_bottom_grid_pin_36_
*92 right_bottom_grid_pin_37_
*93 right_bottom_grid_pin_38_
*94 right_bottom_grid_pin_39_
*95 right_bottom_grid_pin_40_
*96 right_bottom_grid_pin_41_
*97 right_top_grid_pin_1_
*98 _00_
*99 _01_
*100 _02_
*101 _03_
*102 _04_
*103 _05_
*104 _06_
*105 _07_
*106 _08_
*107 _09_
*108 _10_
*109 _11_
*110 _12_
*111 _13_
*112 _14_
*113 _15_
*114 _16_
*115 _17_
*116 _18_
*117 _19_
*118 _20_
*119 _21_
*120 _22_
*121 _23_
*122 mem_bottom_track_1\.ccff_head
*123 mem_bottom_track_1\.ccff_tail
*124 mem_bottom_track_1\.mem_out\[0\]
*125 mem_bottom_track_1\.prog_clk
*126 mem_bottom_track_25\.ccff_head
*127 mem_bottom_track_25\.mem_out\[0\]
*128 mem_bottom_track_5\.ccff_tail
*129 mem_bottom_track_5\.mem_out\[0\]
*130 mem_bottom_track_9\.mem_out\[0\]
*131 mem_right_track_0\.ccff_tail
*132 mem_right_track_0\.mem_out\[0\]
*133 mem_right_track_0\.mem_out\[1\]
*134 mem_right_track_10\.ccff_head
*135 mem_right_track_10\.ccff_tail
*136 mem_right_track_10\.mem_out\[0\]
*137 mem_right_track_12\.ccff_tail
*138 mem_right_track_12\.mem_out\[0\]
*139 mem_right_track_14\.ccff_tail
*140 mem_right_track_14\.mem_out\[0\]
*141 mem_right_track_16\.ccff_tail
*142 mem_right_track_16\.mem_out\[0\]
*143 mem_right_track_18\.ccff_tail
*144 mem_right_track_18\.mem_out\[0\]
*145 mem_right_track_2\.ccff_tail
*146 mem_right_track_2\.mem_out\[0\]
*147 mem_right_track_2\.mem_out\[1\]
*148 mem_right_track_20\.ccff_tail
*149 mem_right_track_20\.mem_out\[0\]
*150 mem_right_track_22\.ccff_tail
*151 mem_right_track_22\.mem_out\[0\]
*152 mem_right_track_24\.ccff_tail
*153 mem_right_track_24\.mem_out\[0\]
*154 mem_right_track_26\.ccff_tail
*155 mem_right_track_26\.mem_out\[0\]
*156 mem_right_track_28\.ccff_tail
*157 mem_right_track_28\.mem_out\[0\]
*158 mem_right_track_30\.ccff_tail
*159 mem_right_track_30\.mem_out\[0\]
*160 mem_right_track_32\.ccff_tail
*161 mem_right_track_32\.mem_out\[0\]
*162 mem_right_track_34\.ccff_tail
*163 mem_right_track_34\.mem_out\[0\]
*164 mem_right_track_36\.ccff_tail
*165 mem_right_track_36\.mem_out\[0\]
*166 mem_right_track_38\.mem_out\[0\]
*167 mem_right_track_4\.ccff_tail
*168 mem_right_track_4\.mem_out\[0\]
*169 mem_right_track_4\.mem_out\[1\]
*170 mem_right_track_6\.ccff_tail
*171 mem_right_track_6\.mem_out\[0\]
*172 mem_right_track_6\.mem_out\[1\]
*173 mem_right_track_8\.mem_out\[0\]
*174 mux_bottom_track_1\.out
*175 mux_bottom_track_1\.sky130_fd_sc_hd__mux2_1_0_X
*176 mux_bottom_track_1\.sky130_fd_sc_hd__mux2_1_1_X
*177 mux_bottom_track_25\.out
*178 mux_bottom_track_25\.sky130_fd_sc_hd__mux2_1_0_X
*179 mux_bottom_track_25\.sky130_fd_sc_hd__mux2_1_1_X
*180 mux_bottom_track_5\.out
*181 mux_bottom_track_5\.sky130_fd_sc_hd__mux2_1_0_X
*182 mux_bottom_track_5\.sky130_fd_sc_hd__mux2_1_1_X
*183 mux_bottom_track_9\.out
*184 mux_bottom_track_9\.sky130_fd_sc_hd__mux2_1_0_X
*185 mux_bottom_track_9\.sky130_fd_sc_hd__mux2_1_1_X
*186 mux_right_track_0\.out
*187 mux_right_track_0\.sky130_fd_sc_hd__mux2_1_0_X
*188 mux_right_track_0\.sky130_fd_sc_hd__mux2_1_1_X
*189 mux_right_track_0\.sky130_fd_sc_hd__mux2_1_2_X
*190 mux_right_track_0\.sky130_fd_sc_hd__mux2_1_3_X
*191 mux_right_track_0\.sky130_fd_sc_hd__mux2_1_4_X
*192 mux_right_track_0\.sky130_fd_sc_hd__mux2_1_5_X
*193 mux_right_track_10\.out
*194 mux_right_track_10\.sky130_fd_sc_hd__mux2_1_0_X
*195 mux_right_track_10\.sky130_fd_sc_hd__mux2_1_1_X
*196 mux_right_track_12\.out
*197 mux_right_track_12\.sky130_fd_sc_hd__mux2_1_0_X
*198 mux_right_track_12\.sky130_fd_sc_hd__mux2_1_1_X
*199 mux_right_track_14\.out
*200 mux_right_track_14\.sky130_fd_sc_hd__mux2_1_0_X
*201 mux_right_track_14\.sky130_fd_sc_hd__mux2_1_1_X
*202 mux_right_track_16\.out
*203 mux_right_track_16\.sky130_fd_sc_hd__mux2_1_0_X
*204 mux_right_track_16\.sky130_fd_sc_hd__mux2_1_1_X
*205 mux_right_track_18\.out
*206 mux_right_track_18\.sky130_fd_sc_hd__mux2_1_0_X
*207 mux_right_track_18\.sky130_fd_sc_hd__mux2_1_1_X
*208 mux_right_track_2\.out
*209 mux_right_track_2\.sky130_fd_sc_hd__mux2_1_0_X
*210 mux_right_track_2\.sky130_fd_sc_hd__mux2_1_1_X
*211 mux_right_track_2\.sky130_fd_sc_hd__mux2_1_2_X
*212 mux_right_track_2\.sky130_fd_sc_hd__mux2_1_3_X
*213 mux_right_track_2\.sky130_fd_sc_hd__mux2_1_4_X
*214 mux_right_track_20\.out
*215 mux_right_track_20\.sky130_fd_sc_hd__mux2_1_0_X
*216 mux_right_track_20\.sky130_fd_sc_hd__mux2_1_1_X
*217 mux_right_track_22\.out
*218 mux_right_track_22\.sky130_fd_sc_hd__mux2_1_0_X
*219 mux_right_track_22\.sky130_fd_sc_hd__mux2_1_1_X
*220 mux_right_track_24\.out
*221 mux_right_track_24\.sky130_fd_sc_hd__mux2_1_0_X
*222 mux_right_track_24\.sky130_fd_sc_hd__mux2_1_1_X
*223 mux_right_track_24\.sky130_fd_sc_hd__mux2_1_2_X
*224 mux_right_track_26\.out
*225 mux_right_track_26\.sky130_fd_sc_hd__mux2_1_0_X
*226 mux_right_track_26\.sky130_fd_sc_hd__mux2_1_1_X
*227 mux_right_track_28\.out
*228 mux_right_track_28\.sky130_fd_sc_hd__mux2_1_0_X
*229 mux_right_track_28\.sky130_fd_sc_hd__mux2_1_1_X
*230 mux_right_track_30\.out
*231 mux_right_track_30\.sky130_fd_sc_hd__mux2_1_0_X
*232 mux_right_track_30\.sky130_fd_sc_hd__mux2_1_1_X
*233 mux_right_track_32\.out
*234 mux_right_track_32\.sky130_fd_sc_hd__mux2_1_0_X
*235 mux_right_track_32\.sky130_fd_sc_hd__mux2_1_1_X
*236 mux_right_track_34\.out
*237 mux_right_track_34\.sky130_fd_sc_hd__mux2_1_0_X
*238 mux_right_track_34\.sky130_fd_sc_hd__mux2_1_1_X
*239 mux_right_track_36\.out
*240 mux_right_track_36\.sky130_fd_sc_hd__mux2_1_0_X
*241 mux_right_track_36\.sky130_fd_sc_hd__mux2_1_1_X
*242 mux_right_track_38\.out
*243 mux_right_track_38\.sky130_fd_sc_hd__mux2_1_0_X
*244 mux_right_track_38\.sky130_fd_sc_hd__mux2_1_1_X
*245 mux_right_track_4\.out
*246 mux_right_track_4\.sky130_fd_sc_hd__mux2_1_0_X
*247 mux_right_track_4\.sky130_fd_sc_hd__mux2_1_1_X
*248 mux_right_track_4\.sky130_fd_sc_hd__mux2_1_2_X
*249 mux_right_track_4\.sky130_fd_sc_hd__mux2_1_3_X
*250 mux_right_track_4\.sky130_fd_sc_hd__mux2_1_4_X
*251 mux_right_track_4\.sky130_fd_sc_hd__mux2_1_5_X
*252 mux_right_track_6\.out
*253 mux_right_track_6\.sky130_fd_sc_hd__mux2_1_0_X
*254 mux_right_track_6\.sky130_fd_sc_hd__mux2_1_1_X
*255 mux_right_track_6\.sky130_fd_sc_hd__mux2_1_2_X
*256 mux_right_track_6\.sky130_fd_sc_hd__mux2_1_3_X
*257 mux_right_track_6\.sky130_fd_sc_hd__mux2_1_4_X
*258 mux_right_track_8\.out
*259 mux_right_track_8\.sky130_fd_sc_hd__mux2_1_0_X
*260 mux_right_track_8\.sky130_fd_sc_hd__mux2_1_1_X
*261 mux_right_track_8\.sky130_fd_sc_hd__mux2_1_2_X
*262 ANTENNA__48__A
*263 ANTENNA__70__A
*264 ANTENNA__72__A
*265 ANTENNA__74__A
*266 ANTENNA__75__A
*267 ANTENNA__76__A
*268 ANTENNA__77__A
*269 ANTENNA__78__A
*270 ANTENNA__79__A
*271 ANTENNA__80__A
*272 ANTENNA__82__A
*273 ANTENNA__83__A
*274 ANTENNA__84__A
*275 ANTENNA__85__A
*276 ANTENNA__86__A
*277 ANTENNA__87__A
*278 ANTENNA__88__A
*279 ANTENNA_mem_right_track_0\.sky130_fd_sc_hd__dfxtp_1_0__D
*280 ANTENNA_mem_right_track_0\.sky130_fd_sc_hd__dfxtp_1_1__D
*281 ANTENNA_mem_right_track_6\.sky130_fd_sc_hd__dfxtp_1_1__D
*282 ANTENNA_mux_bottom_track_1\.mux_l1_in_0__A0
*283 ANTENNA_mux_bottom_track_1\.mux_l1_in_0__A1
*284 ANTENNA_mux_bottom_track_25\.mux_l1_in_0__A0
*285 ANTENNA_mux_bottom_track_25\.mux_l1_in_0__A1
*286 ANTENNA_mux_bottom_track_25\.mux_l2_in_0__S
*287 ANTENNA_mux_bottom_track_5\.mux_l1_in_0__A0
*288 ANTENNA_mux_bottom_track_5\.mux_l1_in_0__A1
*289 ANTENNA_mux_bottom_track_9\.mux_l1_in_0__A0
*290 ANTENNA_mux_bottom_track_9\.mux_l1_in_0__A1
*291 ANTENNA_mux_right_track_0\.mux_l1_in_0__A0
*292 ANTENNA_mux_right_track_0\.mux_l1_in_0__A1
*293 ANTENNA_mux_right_track_0\.mux_l1_in_0__S
*294 ANTENNA_mux_right_track_0\.mux_l1_in_1__A0
*295 ANTENNA_mux_right_track_0\.mux_l1_in_1__A1
*296 ANTENNA_mux_right_track_0\.mux_l1_in_1__S
*297 ANTENNA_mux_right_track_0\.mux_l1_in_2__A0
*298 ANTENNA_mux_right_track_0\.mux_l1_in_2__A1
*299 ANTENNA_mux_right_track_0\.mux_l1_in_2__S
*300 ANTENNA_mux_right_track_10\.mux_l1_in_0__A0
*301 ANTENNA_mux_right_track_10\.mux_l1_in_0__A1
*302 ANTENNA_mux_right_track_12\.mux_l1_in_0__A0
*303 ANTENNA_mux_right_track_12\.mux_l1_in_0__A1
*304 ANTENNA_mux_right_track_14\.mux_l1_in_0__A0
*305 ANTENNA_mux_right_track_14\.mux_l1_in_0__A1
*306 ANTENNA_mux_right_track_16\.mux_l1_in_0__A0
*307 ANTENNA_mux_right_track_16\.mux_l1_in_0__A1
*308 ANTENNA_mux_right_track_18\.mux_l1_in_0__A0
*309 ANTENNA_mux_right_track_18\.mux_l1_in_0__A1
*310 ANTENNA_mux_right_track_2\.mux_l1_in_0__A0
*311 ANTENNA_mux_right_track_2\.mux_l1_in_0__A1
*312 ANTENNA_mux_right_track_2\.mux_l1_in_1__A0
*313 ANTENNA_mux_right_track_2\.mux_l1_in_1__A1
*314 ANTENNA_mux_right_track_2\.mux_l2_in_1__A1
*315 ANTENNA_mux_right_track_20\.mux_l1_in_0__A0
*316 ANTENNA_mux_right_track_20\.mux_l1_in_0__A1
*317 ANTENNA_mux_right_track_22\.mux_l1_in_0__A0
*318 ANTENNA_mux_right_track_22\.mux_l1_in_0__A1
*319 ANTENNA_mux_right_track_24\.mux_l1_in_0__A0
*320 ANTENNA_mux_right_track_24\.mux_l1_in_0__A1
*321 ANTENNA_mux_right_track_24\.mux_l1_in_1__A1
*322 ANTENNA_mux_right_track_26\.mux_l1_in_0__A0
*323 ANTENNA_mux_right_track_26\.mux_l1_in_0__A1
*324 ANTENNA_mux_right_track_28\.mux_l1_in_0__A0
*325 ANTENNA_mux_right_track_28\.mux_l1_in_0__A1
*326 ANTENNA_mux_right_track_30\.mux_l1_in_0__A0
*327 ANTENNA_mux_right_track_30\.mux_l1_in_0__A1
*328 ANTENNA_mux_right_track_32\.mux_l1_in_0__A0
*329 ANTENNA_mux_right_track_32\.mux_l1_in_0__A1
*330 ANTENNA_mux_right_track_34\.mux_l1_in_0__A0
*331 ANTENNA_mux_right_track_34\.mux_l1_in_0__A1
*332 ANTENNA_mux_right_track_36\.mux_l1_in_0__A0
*333 ANTENNA_mux_right_track_36\.mux_l1_in_0__A1
*334 ANTENNA_mux_right_track_38\.mux_l1_in_0__A0
*335 ANTENNA_mux_right_track_38\.mux_l1_in_0__A1
*336 ANTENNA_mux_right_track_4\.mux_l1_in_0__A0
*337 ANTENNA_mux_right_track_4\.mux_l1_in_0__A1
*338 ANTENNA_mux_right_track_4\.mux_l1_in_1__A0
*339 ANTENNA_mux_right_track_4\.mux_l1_in_1__A1
*340 ANTENNA_mux_right_track_4\.mux_l1_in_2__A0
*341 ANTENNA_mux_right_track_4\.mux_l1_in_2__A1
*342 ANTENNA_mux_right_track_6\.mux_l1_in_0__A0
*343 ANTENNA_mux_right_track_6\.mux_l1_in_0__A1
*344 ANTENNA_mux_right_track_6\.mux_l1_in_0__S
*345 ANTENNA_mux_right_track_6\.mux_l1_in_1__A0
*346 ANTENNA_mux_right_track_6\.mux_l1_in_1__A1
*347 ANTENNA_mux_right_track_6\.mux_l1_in_1__S
*348 ANTENNA_mux_right_track_6\.mux_l2_in_1__A1
*349 ANTENNA_mux_right_track_8\.mux_l1_in_0__A0
*350 ANTENNA_mux_right_track_8\.mux_l1_in_0__A1
*351 ANTENNA_mux_right_track_8\.mux_l1_in_1__A1
*352 ANTENNA_prog_clk_0_FTB00_A
*353 FILLER_0_109
*354 FILLER_0_113
*355 FILLER_0_125
*356 FILLER_0_137
*357 FILLER_0_141
*358 FILLER_0_15
*359 FILLER_0_153
*360 FILLER_0_165
*361 FILLER_0_169
*362 FILLER_0_174
*363 FILLER_0_178
*364 FILLER_0_182
*365 FILLER_0_186
*366 FILLER_0_190
*367 FILLER_0_194
*368 FILLER_0_197
*369 FILLER_0_204
*370 FILLER_0_212
*371 FILLER_0_218
*372 FILLER_0_222
*373 FILLER_0_27
*374 FILLER_0_29
*375 FILLER_0_3
*376 FILLER_0_41
*377 FILLER_0_53
*378 FILLER_0_57
*379 FILLER_0_69
*380 FILLER_0_81
*381 FILLER_0_85
*382 FILLER_0_97
*383 FILLER_10_109
*384 FILLER_10_121
*385 FILLER_10_133
*386 FILLER_10_138
*387 FILLER_10_15
*388 FILLER_10_150
*389 FILLER_10_154
*390 FILLER_10_158
*391 FILLER_10_163
*392 FILLER_10_168
*393 FILLER_10_176
*394 FILLER_10_189
*395 FILLER_10_193
*396 FILLER_10_203
*397 FILLER_10_207
*398 FILLER_10_218
*399 FILLER_10_222
*400 FILLER_10_27
*401 FILLER_10_29
*402 FILLER_10_3
*403 FILLER_10_41
*404 FILLER_10_47
*405 FILLER_10_52
*406 FILLER_10_56
*407 FILLER_10_68
*408 FILLER_10_80
*409 FILLER_10_85
*410 FILLER_10_97
*411 FILLER_11_105
*412 FILLER_11_111
*413 FILLER_11_113
*414 FILLER_11_125
*415 FILLER_11_137
*416 FILLER_11_140
*417 FILLER_11_15
*418 FILLER_11_151
*419 FILLER_11_155
*420 FILLER_11_166
*421 FILLER_11_178
*422 FILLER_11_189
*423 FILLER_11_193
*424 FILLER_11_200
*425 FILLER_11_211
*426 FILLER_11_218
*427 FILLER_11_222
*428 FILLER_11_27
*429 FILLER_11_3
*430 FILLER_11_39
*431 FILLER_11_51
*432 FILLER_11_55
*433 FILLER_11_57
*434 FILLER_11_69
*435 FILLER_11_81
*436 FILLER_11_93
*437 FILLER_12_109
*438 FILLER_12_121
*439 FILLER_12_133
*440 FILLER_12_139
*441 FILLER_12_141
*442 FILLER_12_147
*443 FILLER_12_15
*444 FILLER_12_159
*445 FILLER_12_169
*446 FILLER_12_174
*447 FILLER_12_180
*448 FILLER_12_191
*449 FILLER_12_195
*450 FILLER_12_203
*451 FILLER_12_211
*452 FILLER_12_218
*453 FILLER_12_222
*454 FILLER_12_27
*455 FILLER_12_29
*456 FILLER_12_3
*457 FILLER_12_41
*458 FILLER_12_53
*459 FILLER_12_65
*460 FILLER_12_77
*461 FILLER_12_83
*462 FILLER_12_85
*463 FILLER_12_97
*464 FILLER_13_105
*465 FILLER_13_111
*466 FILLER_13_113
*467 FILLER_13_117
*468 FILLER_13_128
*469 FILLER_13_134
*470 FILLER_13_138
*471 FILLER_13_15
*472 FILLER_13_150
*473 FILLER_13_154
*474 FILLER_13_158
*475 FILLER_13_166
*476 FILLER_13_172
*477 FILLER_13_180
*478 FILLER_13_189
*479 FILLER_13_196
*480 FILLER_13_207
*481 FILLER_13_217
*482 FILLER_13_221
*483 FILLER_13_27
*484 FILLER_13_3
*485 FILLER_13_39
*486 FILLER_13_51
*487 FILLER_13_55
*488 FILLER_13_57
*489 FILLER_13_69
*490 FILLER_13_81
*491 FILLER_13_93
*492 FILLER_14_109
*493 FILLER_14_117
*494 FILLER_14_121
*495 FILLER_14_132
*496 FILLER_14_137
*497 FILLER_14_15
*498 FILLER_14_150
*499 FILLER_14_155
*500 FILLER_14_159
*501 FILLER_14_170
*502 FILLER_14_182
*503 FILLER_14_187
*504 FILLER_14_191
*505 FILLER_14_195
*506 FILLER_14_203
*507 FILLER_14_207
*508 FILLER_14_212
*509 FILLER_14_218
*510 FILLER_14_222
*511 FILLER_14_27
*512 FILLER_14_29
*513 FILLER_14_3
*514 FILLER_14_41
*515 FILLER_14_53
*516 FILLER_14_65
*517 FILLER_14_77
*518 FILLER_14_83
*519 FILLER_14_85
*520 FILLER_14_97
*521 FILLER_15_105
*522 FILLER_15_111
*523 FILLER_15_113
*524 FILLER_15_123
*525 FILLER_15_127
*526 FILLER_15_131
*527 FILLER_15_134
*528 FILLER_15_146
*529 FILLER_15_15
*530 FILLER_15_154
*531 FILLER_15_158
*532 FILLER_15_166
*533 FILLER_15_178
*534 FILLER_15_189
*535 FILLER_15_200
*536 FILLER_15_211
*537 FILLER_15_218
*538 FILLER_15_222
*539 FILLER_15_27
*540 FILLER_15_3
*541 FILLER_15_39
*542 FILLER_15_51
*543 FILLER_15_55
*544 FILLER_15_57
*545 FILLER_15_69
*546 FILLER_15_81
*547 FILLER_15_93
*548 FILLER_16_105
*549 FILLER_16_110
*550 FILLER_16_121
*551 FILLER_16_132
*552 FILLER_16_138
*553 FILLER_16_15
*554 FILLER_16_150
*555 FILLER_16_154
*556 FILLER_16_164
*557 FILLER_16_169
*558 FILLER_16_181
*559 FILLER_16_186
*560 FILLER_16_190
*561 FILLER_16_194
*562 FILLER_16_201
*563 FILLER_16_205
*564 FILLER_16_209
*565 FILLER_16_213
*566 FILLER_16_218
*567 FILLER_16_222
*568 FILLER_16_27
*569 FILLER_16_29
*570 FILLER_16_3
*571 FILLER_16_41
*572 FILLER_16_53
*573 FILLER_16_65
*574 FILLER_16_77
*575 FILLER_16_83
*576 FILLER_16_85
*577 FILLER_16_97
*578 FILLER_17_105
*579 FILLER_17_111
*580 FILLER_17_113
*581 FILLER_17_121
*582 FILLER_17_133
*583 FILLER_17_138
*584 FILLER_17_143
*585 FILLER_17_15
*586 FILLER_17_151
*587 FILLER_17_162
*588 FILLER_17_166
*589 FILLER_17_172
*590 FILLER_17_183
*591 FILLER_17_191
*592 FILLER_17_199
*593 FILLER_17_207
*594 FILLER_17_213
*595 FILLER_17_218
*596 FILLER_17_222
*597 FILLER_17_27
*598 FILLER_17_3
*599 FILLER_17_39
*600 FILLER_17_51
*601 FILLER_17_55
*602 FILLER_17_57
*603 FILLER_17_69
*604 FILLER_17_81
*605 FILLER_17_93
*606 FILLER_18_109
*607 FILLER_18_121
*608 FILLER_18_133
*609 FILLER_18_139
*610 FILLER_18_15
*611 FILLER_18_150
*612 FILLER_18_157
*613 FILLER_18_168
*614 FILLER_18_172
*615 FILLER_18_179
*616 FILLER_18_187
*617 FILLER_18_193
*618 FILLER_18_197
*619 FILLER_18_207
*620 FILLER_18_213
*621 FILLER_18_219
*622 FILLER_18_27
*623 FILLER_18_29
*624 FILLER_18_3
*625 FILLER_18_41
*626 FILLER_18_53
*627 FILLER_18_65
*628 FILLER_18_77
*629 FILLER_18_83
*630 FILLER_18_85
*631 FILLER_18_97
*632 FILLER_19_105
*633 FILLER_19_110
*634 FILLER_19_113
*635 FILLER_19_123
*636 FILLER_19_127
*637 FILLER_19_145
*638 FILLER_19_15
*639 FILLER_19_164
*640 FILLER_19_169
*641 FILLER_19_191
*642 FILLER_19_203
*643 FILLER_19_221
*644 FILLER_19_27
*645 FILLER_19_3
*646 FILLER_19_39
*647 FILLER_19_51
*648 FILLER_19_55
*649 FILLER_19_57
*650 FILLER_19_69
*651 FILLER_19_81
*652 FILLER_19_93
*653 FILLER_1_105
*654 FILLER_1_111
*655 FILLER_1_113
*656 FILLER_1_129
*657 FILLER_1_135
*658 FILLER_1_147
*659 FILLER_1_15
*660 FILLER_1_163
*661 FILLER_1_167
*662 FILLER_1_169
*663 FILLER_1_173
*664 FILLER_1_177
*665 FILLER_1_181
*666 FILLER_1_185
*667 FILLER_1_189
*668 FILLER_1_193
*669 FILLER_1_199
*670 FILLER_1_205
*671 FILLER_1_211
*672 FILLER_1_218
*673 FILLER_1_222
*674 FILLER_1_27
*675 FILLER_1_3
*676 FILLER_1_39
*677 FILLER_1_51
*678 FILLER_1_55
*679 FILLER_1_57
*680 FILLER_1_69
*681 FILLER_1_81
*682 FILLER_1_93
*683 FILLER_20_109
*684 FILLER_20_121
*685 FILLER_20_133
*686 FILLER_20_139
*687 FILLER_20_141
*688 FILLER_20_15
*689 FILLER_20_159
*690 FILLER_20_167
*691 FILLER_20_186
*692 FILLER_20_194
*693 FILLER_20_213
*694 FILLER_20_219
*695 FILLER_20_27
*696 FILLER_20_29
*697 FILLER_20_3
*698 FILLER_20_41
*699 FILLER_20_53
*700 FILLER_20_65
*701 FILLER_20_77
*702 FILLER_20_83
*703 FILLER_20_85
*704 FILLER_20_97
*705 FILLER_21_105
*706 FILLER_21_111
*707 FILLER_21_113
*708 FILLER_21_121
*709 FILLER_21_139
*710 FILLER_21_15
*711 FILLER_21_157
*712 FILLER_21_165
*713 FILLER_21_185
*714 FILLER_21_203
*715 FILLER_21_221
*716 FILLER_21_27
*717 FILLER_21_3
*718 FILLER_21_39
*719 FILLER_21_51
*720 FILLER_21_55
*721 FILLER_21_57
*722 FILLER_21_69
*723 FILLER_21_81
*724 FILLER_21_93
*725 FILLER_22_100
*726 FILLER_22_105
*727 FILLER_22_109
*728 FILLER_22_121
*729 FILLER_22_138
*730 FILLER_22_15
*731 FILLER_22_157
*732 FILLER_22_181
*733 FILLER_22_193
*734 FILLER_22_213
*735 FILLER_22_221
*736 FILLER_22_27
*737 FILLER_22_29
*738 FILLER_22_3
*739 FILLER_22_41
*740 FILLER_22_53
*741 FILLER_22_65
*742 FILLER_22_77
*743 FILLER_22_83
*744 FILLER_22_85
*745 FILLER_22_89
*746 FILLER_23_107
*747 FILLER_23_111
*748 FILLER_23_113
*749 FILLER_23_125
*750 FILLER_23_145
*751 FILLER_23_15
*752 FILLER_23_157
*753 FILLER_23_165
*754 FILLER_23_169
*755 FILLER_23_181
*756 FILLER_23_193
*757 FILLER_23_215
*758 FILLER_23_27
*759 FILLER_23_3
*760 FILLER_23_39
*761 FILLER_23_51
*762 FILLER_23_55
*763 FILLER_23_57
*764 FILLER_23_69
*765 FILLER_23_81
*766 FILLER_23_93
*767 FILLER_23_97
*768 FILLER_24_109
*769 FILLER_24_121
*770 FILLER_24_133
*771 FILLER_24_139
*772 FILLER_24_141
*773 FILLER_24_149
*774 FILLER_24_15
*775 FILLER_24_168
*776 FILLER_24_180
*777 FILLER_24_192
*778 FILLER_24_197
*779 FILLER_24_216
*780 FILLER_24_222
*781 FILLER_24_27
*782 FILLER_24_29
*783 FILLER_24_3
*784 FILLER_24_41
*785 FILLER_24_53
*786 FILLER_24_65
*787 FILLER_24_77
*788 FILLER_24_83
*789 FILLER_24_85
*790 FILLER_24_97
*791 FILLER_25_104
*792 FILLER_25_109
*793 FILLER_25_113
*794 FILLER_25_125
*795 FILLER_25_142
*796 FILLER_25_15
*797 FILLER_25_160
*798 FILLER_25_185
*799 FILLER_25_197
*800 FILLER_25_219
*801 FILLER_25_27
*802 FILLER_25_3
*803 FILLER_25_39
*804 FILLER_25_51
*805 FILLER_25_55
*806 FILLER_25_57
*807 FILLER_25_69
*808 FILLER_25_81
*809 FILLER_25_93
*810 FILLER_26_109
*811 FILLER_26_118
*812 FILLER_26_138
*813 FILLER_26_141
*814 FILLER_26_149
*815 FILLER_26_15
*816 FILLER_26_168
*817 FILLER_26_174
*818 FILLER_26_191
*819 FILLER_26_195
*820 FILLER_26_199
*821 FILLER_26_203
*822 FILLER_26_220
*823 FILLER_26_27
*824 FILLER_26_29
*825 FILLER_26_3
*826 FILLER_26_41
*827 FILLER_26_53
*828 FILLER_26_65
*829 FILLER_26_77
*830 FILLER_26_83
*831 FILLER_26_85
*832 FILLER_26_97
*833 FILLER_27_105
*834 FILLER_27_111
*835 FILLER_27_122
*836 FILLER_27_141
*837 FILLER_27_15
*838 FILLER_27_159
*839 FILLER_27_167
*840 FILLER_27_169
*841 FILLER_27_177
*842 FILLER_27_196
*843 FILLER_27_202
*844 FILLER_27_220
*845 FILLER_27_27
*846 FILLER_27_3
*847 FILLER_27_39
*848 FILLER_27_51
*849 FILLER_27_55
*850 FILLER_27_57
*851 FILLER_27_69
*852 FILLER_27_81
*853 FILLER_27_93
*854 FILLER_28_109
*855 FILLER_28_121
*856 FILLER_28_133
*857 FILLER_28_139
*858 FILLER_28_141
*859 FILLER_28_15
*860 FILLER_28_153
*861 FILLER_28_165
*862 FILLER_28_182
*863 FILLER_28_187
*864 FILLER_28_195
*865 FILLER_28_197
*866 FILLER_28_203
*867 FILLER_28_220
*868 FILLER_28_27
*869 FILLER_28_29
*870 FILLER_28_3
*871 FILLER_28_41
*872 FILLER_28_53
*873 FILLER_28_65
*874 FILLER_28_77
*875 FILLER_28_83
*876 FILLER_28_85
*877 FILLER_28_97
*878 FILLER_29_105
*879 FILLER_29_111
*880 FILLER_29_113
*881 FILLER_29_125
*882 FILLER_29_143
*883 FILLER_29_15
*884 FILLER_29_155
*885 FILLER_29_167
*886 FILLER_29_169
*887 FILLER_29_193
*888 FILLER_29_197
*889 FILLER_29_214
*890 FILLER_29_222
*891 FILLER_29_27
*892 FILLER_29_3
*893 FILLER_29_39
*894 FILLER_29_51
*895 FILLER_29_55
*896 FILLER_29_57
*897 FILLER_29_69
*898 FILLER_29_81
*899 FILLER_29_93
*900 FILLER_2_109
*901 FILLER_2_121
*902 FILLER_2_133
*903 FILLER_2_139
*904 FILLER_2_141
*905 FILLER_2_15
*906 FILLER_2_153
*907 FILLER_2_165
*908 FILLER_2_170
*909 FILLER_2_174
*910 FILLER_2_180
*911 FILLER_2_184
*912 FILLER_2_188
*913 FILLER_2_192
*914 FILLER_2_201
*915 FILLER_2_207
*916 FILLER_2_211
*917 FILLER_2_216
*918 FILLER_2_220
*919 FILLER_2_27
*920 FILLER_2_29
*921 FILLER_2_3
*922 FILLER_2_41
*923 FILLER_2_53
*924 FILLER_2_65
*925 FILLER_2_77
*926 FILLER_2_83
*927 FILLER_2_85
*928 FILLER_2_97
*929 FILLER_30_100
*930 FILLER_30_111
*931 FILLER_30_119
*932 FILLER_30_138
*933 FILLER_30_15
*934 FILLER_30_157
*935 FILLER_30_175
*936 FILLER_30_193
*937 FILLER_30_213
*938 FILLER_30_221
*939 FILLER_30_27
*940 FILLER_30_29
*941 FILLER_30_3
*942 FILLER_30_41
*943 FILLER_30_53
*944 FILLER_30_65
*945 FILLER_30_77
*946 FILLER_30_83
*947 FILLER_30_85
*948 FILLER_31_102
*949 FILLER_31_110
*950 FILLER_31_122
*951 FILLER_31_142
*952 FILLER_31_15
*953 FILLER_31_160
*954 FILLER_31_166
*955 FILLER_31_185
*956 FILLER_31_203
*957 FILLER_31_221
*958 FILLER_31_27
*959 FILLER_31_3
*960 FILLER_31_39
*961 FILLER_31_51
*962 FILLER_31_55
*963 FILLER_31_57
*964 FILLER_31_69
*965 FILLER_31_81
*966 FILLER_32_101
*967 FILLER_32_109
*968 FILLER_32_116
*969 FILLER_32_128
*970 FILLER_32_15
*971 FILLER_32_157
*972 FILLER_32_161
*973 FILLER_32_178
*974 FILLER_32_194
*975 FILLER_32_213
*976 FILLER_32_219
*977 FILLER_32_27
*978 FILLER_32_29
*979 FILLER_32_3
*980 FILLER_32_35
*981 FILLER_32_47
*982 FILLER_32_56
*983 FILLER_32_62
*984 FILLER_32_74
*985 FILLER_32_82
*986 FILLER_32_85
*987 FILLER_32_93
*988 FILLER_33_109
*989 FILLER_33_113
*990 FILLER_33_125
*991 FILLER_33_137
*992 FILLER_33_141
*993 FILLER_33_15
*994 FILLER_33_153
*995 FILLER_33_157
*996 FILLER_33_164
*997 FILLER_33_169
*998 FILLER_33_173
*999 FILLER_33_176
*1000 FILLER_33_194
*1001 FILLER_33_197
*1002 FILLER_33_214
*1003 FILLER_33_220
*1004 FILLER_33_27
*1005 FILLER_33_29
*1006 FILLER_33_3
*1007 FILLER_33_41
*1008 FILLER_33_53
*1009 FILLER_33_57
*1010 FILLER_33_69
*1011 FILLER_33_81
*1012 FILLER_33_85
*1013 FILLER_33_97
*1014 FILLER_3_105
*1015 FILLER_3_111
*1016 FILLER_3_113
*1017 FILLER_3_125
*1018 FILLER_3_137
*1019 FILLER_3_149
*1020 FILLER_3_15
*1021 FILLER_3_157
*1022 FILLER_3_162
*1023 FILLER_3_171
*1024 FILLER_3_175
*1025 FILLER_3_179
*1026 FILLER_3_190
*1027 FILLER_3_194
*1028 FILLER_3_200
*1029 FILLER_3_206
*1030 FILLER_3_212
*1031 FILLER_3_218
*1032 FILLER_3_222
*1033 FILLER_3_27
*1034 FILLER_3_3
*1035 FILLER_3_39
*1036 FILLER_3_51
*1037 FILLER_3_55
*1038 FILLER_3_57
*1039 FILLER_3_69
*1040 FILLER_3_81
*1041 FILLER_3_93
*1042 FILLER_4_109
*1043 FILLER_4_121
*1044 FILLER_4_133
*1045 FILLER_4_139
*1046 FILLER_4_141
*1047 FILLER_4_149
*1048 FILLER_4_15
*1049 FILLER_4_160
*1050 FILLER_4_169
*1051 FILLER_4_173
*1052 FILLER_4_186
*1053 FILLER_4_190
*1054 FILLER_4_194
*1055 FILLER_4_199
*1056 FILLER_4_203
*1057 FILLER_4_207
*1058 FILLER_4_213
*1059 FILLER_4_217
*1060 FILLER_4_221
*1061 FILLER_4_27
*1062 FILLER_4_29
*1063 FILLER_4_3
*1064 FILLER_4_41
*1065 FILLER_4_53
*1066 FILLER_4_65
*1067 FILLER_4_77
*1068 FILLER_4_83
*1069 FILLER_4_85
*1070 FILLER_4_97
*1071 FILLER_5_105
*1072 FILLER_5_111
*1073 FILLER_5_113
*1074 FILLER_5_125
*1075 FILLER_5_137
*1076 FILLER_5_149
*1077 FILLER_5_15
*1078 FILLER_5_154
*1079 FILLER_5_158
*1080 FILLER_5_162
*1081 FILLER_5_166
*1082 FILLER_5_175
*1083 FILLER_5_187
*1084 FILLER_5_194
*1085 FILLER_5_198
*1086 FILLER_5_202
*1087 FILLER_5_206
*1088 FILLER_5_210
*1089 FILLER_5_218
*1090 FILLER_5_222
*1091 FILLER_5_27
*1092 FILLER_5_3
*1093 FILLER_5_39
*1094 FILLER_5_51
*1095 FILLER_5_55
*1096 FILLER_5_57
*1097 FILLER_5_69
*1098 FILLER_5_81
*1099 FILLER_5_93
*1100 FILLER_6_109
*1101 FILLER_6_121
*1102 FILLER_6_133
*1103 FILLER_6_139
*1104 FILLER_6_147
*1105 FILLER_6_15
*1106 FILLER_6_151
*1107 FILLER_6_154
*1108 FILLER_6_165
*1109 FILLER_6_170
*1110 FILLER_6_182
*1111 FILLER_6_194
*1112 FILLER_6_197
*1113 FILLER_6_209
*1114 FILLER_6_220
*1115 FILLER_6_27
*1116 FILLER_6_29
*1117 FILLER_6_3
*1118 FILLER_6_41
*1119 FILLER_6_53
*1120 FILLER_6_65
*1121 FILLER_6_77
*1122 FILLER_6_83
*1123 FILLER_6_85
*1124 FILLER_6_97
*1125 FILLER_7_105
*1126 FILLER_7_111
*1127 FILLER_7_113
*1128 FILLER_7_125
*1129 FILLER_7_137
*1130 FILLER_7_149
*1131 FILLER_7_15
*1132 FILLER_7_155
*1133 FILLER_7_166
*1134 FILLER_7_178
*1135 FILLER_7_189
*1136 FILLER_7_193
*1137 FILLER_7_198
*1138 FILLER_7_209
*1139 FILLER_7_220
*1140 FILLER_7_27
*1141 FILLER_7_3
*1142 FILLER_7_39
*1143 FILLER_7_51
*1144 FILLER_7_55
*1145 FILLER_7_57
*1146 FILLER_7_69
*1147 FILLER_7_81
*1148 FILLER_7_93
*1149 FILLER_8_109
*1150 FILLER_8_121
*1151 FILLER_8_133
*1152 FILLER_8_139
*1153 FILLER_8_141
*1154 FILLER_8_145
*1155 FILLER_8_148
*1156 FILLER_8_15
*1157 FILLER_8_152
*1158 FILLER_8_157
*1159 FILLER_8_168
*1160 FILLER_8_179
*1161 FILLER_8_190
*1162 FILLER_8_194
*1163 FILLER_8_206
*1164 FILLER_8_210
*1165 FILLER_8_221
*1166 FILLER_8_27
*1167 FILLER_8_29
*1168 FILLER_8_3
*1169 FILLER_8_41
*1170 FILLER_8_53
*1171 FILLER_8_65
*1172 FILLER_8_77
*1173 FILLER_8_83
*1174 FILLER_8_85
*1175 FILLER_8_97
*1176 FILLER_9_105
*1177 FILLER_9_111
*1178 FILLER_9_113
*1179 FILLER_9_125
*1180 FILLER_9_131
*1181 FILLER_9_134
*1182 FILLER_9_145
*1183 FILLER_9_149
*1184 FILLER_9_15
*1185 FILLER_9_153
*1186 FILLER_9_163
*1187 FILLER_9_167
*1188 FILLER_9_172
*1189 FILLER_9_185
*1190 FILLER_9_196
*1191 FILLER_9_207
*1192 FILLER_9_211
*1193 FILLER_9_221
*1194 FILLER_9_27
*1195 FILLER_9_3
*1196 FILLER_9_39
*1197 FILLER_9_51
*1198 FILLER_9_55
*1199 FILLER_9_57
*1200 FILLER_9_69
*1201 FILLER_9_81
*1202 FILLER_9_93
*1203 PHY_0
*1204 PHY_1
*1205 PHY_10
*1206 PHY_11
*1207 PHY_12
*1208 PHY_13
*1209 PHY_14
*1210 PHY_15
*1211 PHY_16
*1212 PHY_17
*1213 PHY_18
*1214 PHY_19
*1215 PHY_2
*1216 PHY_20
*1217 PHY_21
*1218 PHY_22
*1219 PHY_23
*1220 PHY_24
*1221 PHY_25
*1222 PHY_26
*1223 PHY_27
*1224 PHY_28
*1225 PHY_29
*1226 PHY_3
*1227 PHY_30
*1228 PHY_31
*1229 PHY_32
*1230 PHY_33
*1231 PHY_34
*1232 PHY_35
*1233 PHY_36
*1234 PHY_37
*1235 PHY_38
*1236 PHY_39
*1237 PHY_4
*1238 PHY_40
*1239 PHY_41
*1240 PHY_42
*1241 PHY_43
*1242 PHY_44
*1243 PHY_45
*1244 PHY_46
*1245 PHY_47
*1246 PHY_48
*1247 PHY_49
*1248 PHY_5
*1249 PHY_50
*1250 PHY_51
*1251 PHY_52
*1252 PHY_53
*1253 PHY_54
*1254 PHY_55
*1255 PHY_56
*1256 PHY_57
*1257 PHY_58
*1258 PHY_59
*1259 PHY_6
*1260 PHY_60
*1261 PHY_61
*1262 PHY_62
*1263 PHY_63
*1264 PHY_64
*1265 PHY_65
*1266 PHY_66
*1267 PHY_67
*1268 PHY_7
*1269 PHY_8
*1270 PHY_9
*1271 TAP_100
*1272 TAP_101
*1273 TAP_102
*1274 TAP_103
*1275 TAP_104
*1276 TAP_105
*1277 TAP_106
*1278 TAP_107
*1279 TAP_108
*1280 TAP_109
*1281 TAP_110
*1282 TAP_111
*1283 TAP_112
*1284 TAP_113
*1285 TAP_114
*1286 TAP_115
*1287 TAP_116
*1288 TAP_117
*1289 TAP_118
*1290 TAP_119
*1291 TAP_120
*1292 TAP_121
*1293 TAP_122
*1294 TAP_123
*1295 TAP_124
*1296 TAP_125
*1297 TAP_126
*1298 TAP_127
*1299 TAP_128
*1300 TAP_129
*1301 TAP_130
*1302 TAP_131
*1303 TAP_132
*1304 TAP_133
*1305 TAP_134
*1306 TAP_135
*1307 TAP_136
*1308 TAP_137
*1309 TAP_138
*1310 TAP_139
*1311 TAP_140
*1312 TAP_141
*1313 TAP_142
*1314 TAP_143
*1315 TAP_144
*1316 TAP_145
*1317 TAP_146
*1318 TAP_147
*1319 TAP_148
*1320 TAP_149
*1321 TAP_150
*1322 TAP_151
*1323 TAP_152
*1324 TAP_153