*SPEF "ieee 1481-1999"
*DESIGN "sb_1__0_"
*DATE "11:11:11 Fri 11 11, 1111"
*VENDOR "OpenRCX"
*PROGRAM "Parallel Extraction"
*VERSION "1.0"
*DESIGN_FLOW "NAME_SCOPE LOCAL" "PIN_CAP NONE"
*DIVIDER /
*DELIMITER :
*BUS_DELIMITER []
*T_UNIT 1 NS
*C_UNIT 1 PF
*R_UNIT 1 OHM
*L_UNIT 1 HENRY

*NAME_MAP
*1 SC_IN_TOP
*2 SC_OUT_TOP
*3 Test_en_N_out
*4 Test_en_S_in
*7 ccff_head
*8 ccff_tail
*9 chanx_left_in[0]
*10 chanx_left_in[10]
*11 chanx_left_in[11]
*12 chanx_left_in[12]
*13 chanx_left_in[13]
*14 chanx_left_in[14]
*15 chanx_left_in[15]
*16 chanx_left_in[16]
*17 chanx_left_in[17]
*18 chanx_left_in[18]
*19 chanx_left_in[19]
*20 chanx_left_in[1]
*21 chanx_left_in[2]
*22 chanx_left_in[3]
*23 chanx_left_in[4]
*24 chanx_left_in[5]
*25 chanx_left_in[6]
*26 chanx_left_in[7]
*27 chanx_left_in[8]
*28 chanx_left_in[9]
*29 chanx_left_out[0]
*30 chanx_left_out[10]
*31 chanx_left_out[11]
*32 chanx_left_out[12]
*33 chanx_left_out[13]
*34 chanx_left_out[14]
*35 chanx_left_out[15]
*36 chanx_left_out[16]
*37 chanx_left_out[17]
*38 chanx_left_out[18]
*39 chanx_left_out[19]
*40 chanx_left_out[1]
*41 chanx_left_out[2]
*42 chanx_left_out[3]
*43 chanx_left_out[4]
*44 chanx_left_out[5]
*45 chanx_left_out[6]
*46 chanx_left_out[7]
*47 chanx_left_out[8]
*48 chanx_left_out[9]
*49 chanx_right_in[0]
*50 chanx_right_in[10]
*51 chanx_right_in[11]
*52 chanx_right_in[12]
*53 chanx_right_in[13]
*54 chanx_right_in[14]
*55 chanx_right_in[15]
*56 chanx_right_in[16]
*57 chanx_right_in[17]
*58 chanx_right_in[18]
*59 chanx_right_in[19]
*60 chanx_right_in[1]
*61 chanx_right_in[2]
*62 chanx_right_in[3]
*63 chanx_right_in[4]
*64 chanx_right_in[5]
*65 chanx_right_in[6]
*66 chanx_right_in[7]
*67 chanx_right_in[8]
*68 chanx_right_in[9]
*69 chanx_right_out[0]
*70 chanx_right_out[10]
*71 chanx_right_out[11]
*72 chanx_right_out[12]
*73 chanx_right_out[13]
*74 chanx_right_out[14]
*75 chanx_right_out[15]
*76 chanx_right_out[16]
*77 chanx_right_out[17]
*78 chanx_right_out[18]
*79 chanx_right_out[19]
*80 chanx_right_out[1]
*81 chanx_right_out[2]
*82 chanx_right_out[3]
*83 chanx_right_out[4]
*84 chanx_right_out[5]
*85 chanx_right_out[6]
*86 chanx_right_out[7]
*87 chanx_right_out[8]
*88 chanx_right_out[9]
*89 chany_top_in[0]
*90 chany_top_in[10]
*91 chany_top_in[11]
*92 chany_top_in[12]
*93 chany_top_in[13]
*94 chany_top_in[14]
*95 chany_top_in[15]
*96 chany_top_in[16]
*97 chany_top_in[17]
*98 chany_top_in[18]
*99 chany_top_in[19]
*100 chany_top_in[1]
*101 chany_top_in[2]
*102 chany_top_in[3]
*103 chany_top_in[4]
*104 chany_top_in[5]
*105 chany_top_in[6]
*106 chany_top_in[7]
*107 chany_top_in[8]
*108 chany_top_in[9]
*109 chany_top_out[0]
*110 chany_top_out[10]
*111 chany_top_out[11]
*112 chany_top_out[12]
*113 chany_top_out[13]
*114 chany_top_out[14]
*115 chany_top_out[15]
*116 chany_top_out[16]
*117 chany_top_out[17]
*118 chany_top_out[18]
*119 chany_top_out[19]
*120 chany_top_out[1]
*121 chany_top_out[2]
*122 chany_top_out[3]
*123 chany_top_out[4]
*124 chany_top_out[5]
*125 chany_top_out[6]
*126 chany_top_out[7]
*127 chany_top_out[8]
*128 chany_top_out[9]
*129 clk_3_N_out
*130 clk_3_S_in
*131 left_bottom_grid_pin_11_
*132 left_bottom_grid_pin_13_
*133 left_bottom_grid_pin_15_
*134 left_bottom_grid_pin_17_
*135 left_bottom_grid_pin_1_
*136 left_bottom_grid_pin_3_
*137 left_bottom_grid_pin_5_
*138 left_bottom_grid_pin_7_
*139 left_bottom_grid_pin_9_
*140 prog_clk_0_N_in
*141 prog_clk_3_N_out
*142 prog_clk_3_S_in
*143 right_bottom_grid_pin_11_
*144 right_bottom_grid_pin_13_
*145 right_bottom_grid_pin_15_
*146 right_bottom_grid_pin_17_
*147 right_bottom_grid_pin_1_
*148 right_bottom_grid_pin_3_
*149 right_bottom_grid_pin_5_
*150 right_bottom_grid_pin_7_
*151 right_bottom_grid_pin_9_
*152 top_left_grid_pin_42_
*153 top_left_grid_pin_43_
*154 top_left_grid_pin_44_
*155 top_left_grid_pin_45_
*156 top_left_grid_pin_46_
*157 top_left_grid_pin_47_
*158 top_left_grid_pin_48_
*159 top_left_grid_pin_49_
*160 _000_
*161 _001_
*162 _002_
*163 _003_
*164 _004_
*165 _005_
*166 _006_
*167 _007_
*168 _008_
*169 _009_
*170 _010_
*171 _011_
*172 _012_
*173 _013_
*174 _014_
*175 _015_
*176 _016_
*177 _017_
*178 _018_
*179 _019_
*180 _020_
*181 _021_
*182 _022_
*183 _023_
*184 _024_
*185 _025_
*186 _026_
*187 _027_
*188 mem_left_track_1\.ccff_head
*189 mem_left_track_1\.ccff_tail
*190 mem_left_track_1\.mem_out\[0\]
*191 mem_left_track_1\.mem_out\[1\]
*192 mem_left_track_1\.mem_out\[2\]
*193 mem_left_track_1\.prog_clk
*194 mem_left_track_17\.ccff_head
*195 mem_left_track_17\.ccff_tail
*196 mem_left_track_17\.mem_out\[0\]
*197 mem_left_track_17\.mem_out\[1\]
*198 mem_left_track_25\.ccff_tail
*199 mem_left_track_25\.mem_out\[0\]
*200 mem_left_track_25\.mem_out\[1\]
*201 mem_left_track_3\.ccff_tail
*202 mem_left_track_3\.mem_out\[0\]
*203 mem_left_track_3\.mem_out\[1\]
*204 mem_left_track_3\.mem_out\[2\]
*205 mem_left_track_33\.mem_out\[0\]
*206 mem_left_track_33\.mem_out\[1\]
*207 mem_left_track_5\.ccff_tail
*208 mem_left_track_5\.mem_out\[0\]
*209 mem_left_track_5\.mem_out\[1\]
*210 mem_left_track_5\.mem_out\[2\]
*211 mem_left_track_9\.mem_out\[0\]
*212 mem_left_track_9\.mem_out\[1\]
*213 mem_left_track_9\.mem_out\[2\]
*214 mem_right_track_0\.ccff_head
*215 mem_right_track_0\.ccff_tail
*216 mem_right_track_0\.mem_out\[0\]
*217 mem_right_track_0\.mem_out\[1\]
*218 mem_right_track_0\.mem_out\[2\]
*219 mem_right_track_16\.ccff_head
*220 mem_right_track_16\.ccff_tail
*221 mem_right_track_16\.mem_out\[0\]
*222 mem_right_track_16\.mem_out\[1\]
*223 mem_right_track_2\.ccff_tail
*224 mem_right_track_2\.mem_out\[0\]
*225 mem_right_track_2\.mem_out\[1\]
*226 mem_right_track_2\.mem_out\[2\]
*227 mem_right_track_24\.ccff_tail
*228 mem_right_track_24\.mem_out\[0\]
*229 mem_right_track_24\.mem_out\[1\]
*230 mem_right_track_32\.mem_out\[0\]
*231 mem_right_track_32\.mem_out\[1\]
*232 mem_right_track_4\.ccff_tail
*233 mem_right_track_4\.mem_out\[0\]
*234 mem_right_track_4\.mem_out\[1\]
*235 mem_right_track_4\.mem_out\[2\]
*236 mem_right_track_8\.mem_out\[0\]
*237 mem_right_track_8\.mem_out\[1\]
*238 mem_right_track_8\.mem_out\[2\]
*239 mem_top_track_0\.ccff_tail
*240 mem_top_track_0\.mem_out\[0\]
*241 mem_top_track_0\.mem_out\[1\]
*242 mem_top_track_0\.mem_out\[2\]
*243 mem_top_track_10\.ccff_head
*244 mem_top_track_10\.ccff_tail
*245 mem_top_track_10\.mem_out\[0\]
*246 mem_top_track_10\.mem_out\[1\]
*247 mem_top_track_12\.ccff_tail
*248 mem_top_track_12\.mem_out\[0\]
*249 mem_top_track_14\.ccff_tail
*250 mem_top_track_14\.mem_out\[0\]
*251 mem_top_track_16\.ccff_tail
*252 mem_top_track_16\.mem_out\[0\]
*253 mem_top_track_18\.ccff_tail
*254 mem_top_track_18\.mem_out\[0\]
*255 mem_top_track_2\.ccff_tail
*256 mem_top_track_2\.mem_out\[0\]
*257 mem_top_track_2\.mem_out\[1\]
*258 mem_top_track_20\.ccff_tail
*259 mem_top_track_20\.mem_out\[0\]
*260 mem_top_track_22\.ccff_tail
*261 mem_top_track_22\.mem_out\[0\]
*262 mem_top_track_24\.ccff_tail
*263 mem_top_track_24\.mem_out\[0\]
*264 mem_top_track_38\.mem_out\[0\]
*265 mem_top_track_4\.ccff_tail
*266 mem_top_track_4\.mem_out\[0\]
*267 mem_top_track_4\.mem_out\[1\]
*268 mem_top_track_6\.ccff_tail
*269 mem_top_track_6\.mem_out\[0\]
*270 mem_top_track_6\.mem_out\[1\]
*271 mem_top_track_8\.mem_out\[0\]
*272 mem_top_track_8\.mem_out\[1\]
*273 mux_left_track_1\.out
*274 mux_left_track_1\.sky130_fd_sc_hd__mux2_1_0_X
*275 mux_left_track_1\.sky130_fd_sc_hd__mux2_1_1_X
*276 mux_left_track_1\.sky130_fd_sc_hd__mux2_1_2_X
*277 mux_left_track_1\.sky130_fd_sc_hd__mux2_1_3_X
*278 mux_left_track_1\.sky130_fd_sc_hd__mux2_1_4_X
*279 mux_left_track_1\.sky130_fd_sc_hd__mux2_1_5_X
*280 mux_left_track_1\.sky130_fd_sc_hd__mux2_1_6_X
*281 mux_left_track_1\.sky130_fd_sc_hd__mux2_1_7_X
*282 mux_left_track_1\.sky130_fd_sc_hd__mux2_1_8_X
*283 mux_left_track_1\.sky130_fd_sc_hd__mux2_1_9_X
*284 mux_left_track_17\.out
*285 mux_left_track_17\.sky130_fd_sc_hd__mux2_1_0_X
*286 mux_left_track_17\.sky130_fd_sc_hd__mux2_1_1_X
*287 mux_left_track_17\.sky130_fd_sc_hd__mux2_1_2_X
*288 mux_left_track_17\.sky130_fd_sc_hd__mux2_1_3_X
*289 mux_left_track_17\.sky130_fd_sc_hd__mux2_1_4_X
*290 mux_left_track_17\.sky130_fd_sc_hd__mux2_1_5_X
*291 mux_left_track_17\.sky130_fd_sc_hd__mux2_1_6_X
*292 mux_left_track_25\.out
*293 mux_left_track_25\.sky130_fd_sc_hd__mux2_1_0_X
*294 mux_left_track_25\.sky130_fd_sc_hd__mux2_1_1_X
*295 mux_left_track_25\.sky130_fd_sc_hd__mux2_1_2_X
*296 mux_left_track_25\.sky130_fd_sc_hd__mux2_1_3_X
*297 mux_left_track_25\.sky130_fd_sc_hd__mux2_1_4_X
*298 mux_left_track_25\.sky130_fd_sc_hd__mux2_1_5_X
*299 mux_left_track_25\.sky130_fd_sc_hd__mux2_1_6_X
*300 mux_left_track_3\.out
*301 mux_left_track_3\.sky130_fd_sc_hd__mux2_1_0_X
*302 mux_left_track_3\.sky130_fd_sc_hd__mux2_1_1_X
*303 mux_left_track_3\.sky130_fd_sc_hd__mux2_1_2_X
*304 mux_left_track_3\.sky130_fd_sc_hd__mux2_1_3_X
*305 mux_left_track_3\.sky130_fd_sc_hd__mux2_1_4_X
*306 mux_left_track_3\.sky130_fd_sc_hd__mux2_1_5_X
*307 mux_left_track_3\.sky130_fd_sc_hd__mux2_1_6_X
*308 mux_left_track_3\.sky130_fd_sc_hd__mux2_1_7_X
*309 mux_left_track_33\.out
*310 mux_left_track_33\.sky130_fd_sc_hd__mux2_1_0_X
*311 mux_left_track_33\.sky130_fd_sc_hd__mux2_1_1_X
*312 mux_left_track_33\.sky130_fd_sc_hd__mux2_1_2_X
*313 mux_left_track_33\.sky130_fd_sc_hd__mux2_1_3_X
*314 mux_left_track_33\.sky130_fd_sc_hd__mux2_1_4_X
*315 mux_left_track_33\.sky130_fd_sc_hd__mux2_1_5_X
*316 mux_left_track_5\.out
*317 mux_left_track_5\.sky130_fd_sc_hd__mux2_1_0_X
*318 mux_left_track_5\.sky130_fd_sc_hd__mux2_1_10_X
*319 mux_left_track_5\.sky130_fd_sc_hd__mux2_1_11_X
*320 mux_left_track_5\.sky130_fd_sc_hd__mux2_1_12_X
*321 mux_left_track_5\.sky130_fd_sc_hd__mux2_1_13_X
*322 mux_left_track_5\.sky130_fd_sc_hd__mux2_1_1_X
*323 mux_left_track_5\.sky130_fd_sc_hd__mux2_1_2_X
*324 mux_left_track_5\.sky130_fd_sc_hd__mux2_1_3_X
*325 mux_left_track_5\.sky130_fd_sc_hd__mux2_1_4_X
*326 mux_left_track_5\.sky130_fd_sc_hd__mux2_1_5_X
*327 mux_left_track_5\.sky130_fd_sc_hd__mux2_1_6_X
*328 mux_left_track_5\.sky130_fd_sc_hd__mux2_1_7_X
*329 mux_left_track_5\.sky130_fd_sc_hd__mux2_1_8_X
*330 mux_left_track_5\.sky130_fd_sc_hd__mux2_1_9_X
*331 mux_left_track_9\.out
*332 mux_left_track_9\.sky130_fd_sc_hd__mux2_1_0_X
*333 mux_left_track_9\.sky130_fd_sc_hd__mux2_1_1_X
*334 mux_left_track_9\.sky130_fd_sc_hd__mux2_1_2_X
*335 mux_left_track_9\.sky130_fd_sc_hd__mux2_1_3_X
*336 mux_left_track_9\.sky130_fd_sc_hd__mux2_1_4_X
*337 mux_left_track_9\.sky130_fd_sc_hd__mux2_1_5_X
*338 mux_left_track_9\.sky130_fd_sc_hd__mux2_1_6_X
*339 mux_left_track_9\.sky130_fd_sc_hd__mux2_1_7_X
*340 mux_right_track_0\.out
*341 mux_right_track_0\.sky130_fd_sc_hd__mux2_1_0_X
*342 mux_right_track_0\.sky130_fd_sc_hd__mux2_1_1_X
*343 mux_right_track_0\.sky130_fd_sc_hd__mux2_1_2_X
*344 mux_right_track_0\.sky130_fd_sc_hd__mux2_1_3_X
*345 mux_right_track_0\.sky130_fd_sc_hd__mux2_1_4_X
*346 mux_right_track_0\.sky130_fd_sc_hd__mux2_1_5_X
*347 mux_right_track_0\.sky130_fd_sc_hd__mux2_1_6_X
*348 mux_right_track_0\.sky130_fd_sc_hd__mux2_1_7_X
*349 mux_right_track_0\.sky130_fd_sc_hd__mux2_1_8_X
*350 mux_right_track_16\.out
*351 mux_right_track_16\.sky130_fd_sc_hd__mux2_1_0_X
*352 mux_right_track_16\.sky130_fd_sc_hd__mux2_1_1_X
*353 mux_right_track_16\.sky130_fd_sc_hd__mux2_1_2_X
*354 mux_right_track_16\.sky130_fd_sc_hd__mux2_1_3_X
*355 mux_right_track_16\.sky130_fd_sc_hd__mux2_1_4_X
*356 mux_right_track_16\.sky130_fd_sc_hd__mux2_1_5_X
*357 mux_right_track_16\.sky130_fd_sc_hd__mux2_1_6_X
*358 mux_right_track_2\.out
*359 mux_right_track_2\.sky130_fd_sc_hd__mux2_1_0_X
*360 mux_right_track_2\.sky130_fd_sc_hd__mux2_1_1_X
*361 mux_right_track_2\.sky130_fd_sc_hd__mux2_1_2_X
*362 mux_right_track_2\.sky130_fd_sc_hd__mux2_1_3_X
*363 mux_right_track_2\.sky130_fd_sc_hd__mux2_1_4_X
*364 mux_right_track_2\.sky130_fd_sc_hd__mux2_1_5_X
*365 mux_right_track_2\.sky130_fd_sc_hd__mux2_1_6_X
*366 mux_right_track_2\.sky130_fd_sc_hd__mux2_1_7_X
*367 mux_right_track_2\.sky130_fd_sc_hd__mux2_1_8_X
*368 mux_right_track_24\.out
*369 mux_right_track_24\.sky130_fd_sc_hd__mux2_1_0_X
*370 mux_right_track_24\.sky130_fd_sc_hd__mux2_1_1_X
*371 mux_right_track_24\.sky130_fd_sc_hd__mux2_1_2_X
*372 mux_right_track_24\.sky130_fd_sc_hd__mux2_1_3_X
*373 mux_right_track_24\.sky130_fd_sc_hd__mux2_1_4_X
*374 mux_right_track_24\.sky130_fd_sc_hd__mux2_1_5_X
*375 mux_right_track_24\.sky130_fd_sc_hd__mux2_1_6_X
*376 mux_right_track_32\.out
*377 mux_right_track_32\.sky130_fd_sc_hd__mux2_1_0_X
*378 mux_right_track_32\.sky130_fd_sc_hd__mux2_1_1_X
*379 mux_right_track_32\.sky130_fd_sc_hd__mux2_1_2_X
*380 mux_right_track_32\.sky130_fd_sc_hd__mux2_1_3_X
*381 mux_right_track_32\.sky130_fd_sc_hd__mux2_1_4_X
*382 mux_right_track_32\.sky130_fd_sc_hd__mux2_1_5_X
*383 mux_right_track_4\.out
*384 mux_right_track_4\.sky130_fd_sc_hd__mux2_1_0_X
*385 mux_right_track_4\.sky130_fd_sc_hd__mux2_1_10_X
*386 mux_right_track_4\.sky130_fd_sc_hd__mux2_1_11_X
*387 mux_right_track_4\.sky130_fd_sc_hd__mux2_1_12_X
*388 mux_right_track_4\.sky130_fd_sc_hd__mux2_1_13_X
*389 mux_right_track_4\.sky130_fd_sc_hd__mux2_1_1_X
*390 mux_right_track_4\.sky130_fd_sc_hd__mux2_1_2_X
*391 mux_right_track_4\.sky130_fd_sc_hd__mux2_1_3_X
*392 mux_right_track_4\.sky130_fd_sc_hd__mux2_1_4_X
*393 mux_right_track_4\.sky130_fd_sc_hd__mux2_1_5_X
*394 mux_right_track_4\.sky130_fd_sc_hd__mux2_1_6_X
*395 mux_right_track_4\.sky130_fd_sc_hd__mux2_1_7_X
*396 mux_right_track_4\.sky130_fd_sc_hd__mux2_1_8_X
*397 mux_right_track_4\.sky130_fd_sc_hd__mux2_1_9_X
*398 mux_right_track_8\.out
*399 mux_right_track_8\.sky130_fd_sc_hd__mux2_1_0_X
*400 mux_right_track_8\.sky130_fd_sc_hd__mux2_1_1_X
*401 mux_right_track_8\.sky130_fd_sc_hd__mux2_1_2_X
*402 mux_right_track_8\.sky130_fd_sc_hd__mux2_1_3_X
*403 mux_right_track_8\.sky130_fd_sc_hd__mux2_1_4_X
*404 mux_right_track_8\.sky130_fd_sc_hd__mux2_1_5_X
*405 mux_right_track_8\.sky130_fd_sc_hd__mux2_1_6_X
*406 mux_right_track_8\.sky130_fd_sc_hd__mux2_1_7_X
*407 mux_top_track_0\.out
*408 mux_top_track_0\.sky130_fd_sc_hd__mux2_1_0_X
*409 mux_top_track_0\.sky130_fd_sc_hd__mux2_1_1_X
*410 mux_top_track_0\.sky130_fd_sc_hd__mux2_1_2_X
*411 mux_top_track_0\.sky130_fd_sc_hd__mux2_1_3_X
*412 mux_top_track_0\.sky130_fd_sc_hd__mux2_1_4_X
*413 mux_top_track_0\.sky130_fd_sc_hd__mux2_1_5_X
*414 mux_top_track_0\.sky130_fd_sc_hd__mux2_1_6_X
*415 mux_top_track_0\.sky130_fd_sc_hd__mux2_1_7_X
*416 mux_top_track_10\.out
*417 mux_top_track_10\.sky130_fd_sc_hd__mux2_1_0_X
*418 mux_top_track_10\.sky130_fd_sc_hd__mux2_1_1_X
*419 mux_top_track_10\.sky130_fd_sc_hd__mux2_1_2_X
*420 mux_top_track_10\.sky130_fd_sc_hd__mux2_1_3_X
*421 mux_top_track_12\.out
*422 mux_top_track_12\.sky130_fd_sc_hd__mux2_1_0_X
*423 mux_top_track_12\.sky130_fd_sc_hd__mux2_1_1_X
*424 mux_top_track_12\.sky130_fd_sc_hd__mux2_1_2_X
*425 mux_top_track_14\.out
*426 mux_top_track_14\.sky130_fd_sc_hd__mux2_1_0_X
*427 mux_top_track_14\.sky130_fd_sc_hd__mux2_1_1_X
*428 mux_top_track_14\.sky130_fd_sc_hd__mux2_1_2_X
*429 mux_top_track_16\.out
*430 mux_top_track_16\.sky130_fd_sc_hd__mux2_1_0_X
*431 mux_top_track_16\.sky130_fd_sc_hd__mux2_1_1_X
*432 mux_top_track_16\.sky130_fd_sc_hd__mux2_1_2_X
*433 mux_top_track_18\.out
*434 mux_top_track_18\.sky130_fd_sc_hd__mux2_1_0_X
*435 mux_top_track_18\.sky130_fd_sc_hd__mux2_1_1_X
*436 mux_top_track_18\.sky130_fd_sc_hd__mux2_1_2_X
*437 mux_top_track_2\.out
*438 mux_top_track_2\.sky130_fd_sc_hd__mux2_1_0_X
*439 mux_top_track_2\.sky130_fd_sc_hd__mux2_1_1_X
*440 mux_top_track_2\.sky130_fd_sc_hd__mux2_1_2_X
*441 mux_top_track_2\.sky130_fd_sc_hd__mux2_1_3_X
*442 mux_top_track_2\.sky130_fd_sc_hd__mux2_1_4_X
*443 mux_top_track_2\.sky130_fd_sc_hd__mux2_1_5_X
*444 mux_top_track_2\.sky130_fd_sc_hd__mux2_1_6_X
*445 mux_top_track_20\.out
*446 mux_top_track_20\.sky130_fd_sc_hd__mux2_1_0_X
*447 mux_top_track_20\.sky130_fd_sc_hd__mux2_1_1_X
*448 mux_top_track_20\.sky130_fd_sc_hd__mux2_1_2_X
*449 mux_top_track_22\.out
*450 mux_top_track_22\.sky130_fd_sc_hd__mux2_1_0_X
*451 mux_top_track_22\.sky130_fd_sc_hd__mux2_1_1_X
*452 mux_top_track_22\.sky130_fd_sc_hd__mux2_1_2_X
*453 mux_top_track_24\.out
*454 mux_top_track_24\.sky130_fd_sc_hd__mux2_1_0_X
*455 mux_top_track_24\.sky130_fd_sc_hd__mux2_1_1_X
*456 mux_top_track_24\.sky130_fd_sc_hd__mux2_1_2_X
*457 mux_top_track_38\.out
*458 mux_top_track_38\.sky130_fd_sc_hd__mux2_1_0_X
*459 mux_top_track_38\.sky130_fd_sc_hd__mux2_1_1_X
*460 mux_top_track_4\.out
*461 mux_top_track_4\.sky130_fd_sc_hd__mux2_1_0_X
*462 mux_top_track_4\.sky130_fd_sc_hd__mux2_1_1_X
*463 mux_top_track_4\.sky130_fd_sc_hd__mux2_1_2_X
*464 mux_top_track_4\.sky130_fd_sc_hd__mux2_1_3_X
*465 mux_top_track_4\.sky130_fd_sc_hd__mux2_1_4_X
*466 mux_top_track_4\.sky130_fd_sc_hd__mux2_1_5_X
*467 mux_top_track_4\.sky130_fd_sc_hd__mux2_1_6_X
*468 mux_top_track_6\.out
*469 mux_top_track_6\.sky130_fd_sc_hd__mux2_1_0_X
*470 mux_top_track_6\.sky130_fd_sc_hd__mux2_1_1_X
*471 mux_top_track_6\.sky130_fd_sc_hd__mux2_1_2_X
*472 mux_top_track_6\.sky130_fd_sc_hd__mux2_1_3_X
*473 mux_top_track_6\.sky130_fd_sc_hd__mux2_1_4_X
*474 mux_top_track_6\.sky130_fd_sc_hd__mux2_1_5_X
*475 mux_top_track_6\.sky130_fd_sc_hd__mux2_1_6_X
*476 mux_top_track_8\.out
*477 mux_top_track_8\.sky130_fd_sc_hd__mux2_1_0_X
*478 mux_top_track_8\.sky130_fd_sc_hd__mux2_1_1_X
*479 mux_top_track_8\.sky130_fd_sc_hd__mux2_1_2_X
*480 mux_top_track_8\.sky130_fd_sc_hd__mux2_1_3_X
*481 ANTENNA_Test_en_N_FTB01_A
*482 ANTENNA__056__A
*483 ANTENNA__060__A
*484 ANTENNA__062__A
*485 ANTENNA__063__A
*486 ANTENNA__064__A
*487 ANTENNA__066__A
*488 ANTENNA__067__A
*489 ANTENNA__068__A
*490 ANTENNA__070__A
*491 ANTENNA__071__A
*492 ANTENNA__072__A
*493 ANTENNA__074__A
*494 ANTENNA__075__A
*495 ANTENNA__076__A
*496 ANTENNA__080__A
*497 ANTENNA__082__A
*498 ANTENNA__083__A
*499 ANTENNA__084__A
*500 ANTENNA__086__A
*501 ANTENNA__087__A
*502 ANTENNA__088__A
*503 ANTENNA__090__A
*504 ANTENNA__091__A
*505 ANTENNA__092__A
*506 ANTENNA__094__A
*507 ANTENNA__095__A
*508 ANTENNA__096__A
*509 ANTENNA__110__A
*510 ANTENNA__111__A
*511 ANTENNA__112__A
*512 ANTENNA__113__A
*513 ANTENNA__114__A
*514 ANTENNA__115__A
*515 ANTENNA_clk_3_N_FTB01_A
*516 ANTENNA_mem_left_track_1\.sky130_fd_sc_hd__dfxtp_1_0__CLK
*517 ANTENNA_mem_left_track_1\.sky130_fd_sc_hd__dfxtp_1_1__CLK
*518 ANTENNA_mem_left_track_1\.sky130_fd_sc_hd__dfxtp_1_2__CLK
*519 ANTENNA_mem_left_track_1\.sky130_fd_sc_hd__dfxtp_1_3__CLK
*520 ANTENNA_mem_left_track_17\.sky130_fd_sc_hd__dfxtp_1_0__CLK
*521 ANTENNA_mem_left_track_17\.sky130_fd_sc_hd__dfxtp_1_1__CLK
*522 ANTENNA_mem_left_track_17\.sky130_fd_sc_hd__dfxtp_1_1__D
*523 ANTENNA_mem_left_track_17\.sky130_fd_sc_hd__dfxtp_1_2__CLK
*524 ANTENNA_mem_left_track_25\.sky130_fd_sc_hd__dfxtp_1_0__CLK
*525 ANTENNA_mem_left_track_25\.sky130_fd_sc_hd__dfxtp_1_1__CLK
*526 ANTENNA_mem_left_track_25\.sky130_fd_sc_hd__dfxtp_1_2__CLK
*527 ANTENNA_mem_left_track_3\.sky130_fd_sc_hd__dfxtp_1_0__CLK
*528 ANTENNA_mem_left_track_3\.sky130_fd_sc_hd__dfxtp_1_1__CLK
*529 ANTENNA_mem_left_track_3\.sky130_fd_sc_hd__dfxtp_1_2__CLK
*530 ANTENNA_mem_left_track_3\.sky130_fd_sc_hd__dfxtp_1_3__CLK
*531 ANTENNA_mem_left_track_33\.sky130_fd_sc_hd__dfxtp_1_0__CLK
*532 ANTENNA_mem_left_track_33\.sky130_fd_sc_hd__dfxtp_1_1__CLK
*533 ANTENNA_mem_left_track_33\.sky130_fd_sc_hd__dfxtp_1_1__D
*534 ANTENNA_mem_left_track_33\.sky130_fd_sc_hd__dfxtp_1_2__CLK
*535 ANTENNA_mem_left_track_5\.sky130_fd_sc_hd__dfxtp_1_0__CLK
*536 ANTENNA_mem_left_track_5\.sky130_fd_sc_hd__dfxtp_1_1__CLK
*537 ANTENNA_mem_left_track_5\.sky130_fd_sc_hd__dfxtp_1_1__D
*538 ANTENNA_mem_left_track_5\.sky130_fd_sc_hd__dfxtp_1_2__CLK
*539 ANTENNA_mem_left_track_5\.sky130_fd_sc_hd__dfxtp_1_3__CLK
*540 ANTENNA_mem_left_track_9\.sky130_fd_sc_hd__dfxtp_1_0__CLK
*541 ANTENNA_mem_left_track_9\.sky130_fd_sc_hd__dfxtp_1_1__CLK
*542 ANTENNA_mem_left_track_9\.sky130_fd_sc_hd__dfxtp_1_2__CLK
*543 ANTENNA_mem_left_track_9\.sky130_fd_sc_hd__dfxtp_1_2__D
*544 ANTENNA_mem_left_track_9\.sky130_fd_sc_hd__dfxtp_1_3__CLK
*545 ANTENNA_mem_right_track_0\.sky130_fd_sc_hd__dfxtp_1_0__CLK
*546 ANTENNA_mem_right_track_0\.sky130_fd_sc_hd__dfxtp_1_1__CLK
*547 ANTENNA_mem_right_track_0\.sky130_fd_sc_hd__dfxtp_1_2__CLK
*548 ANTENNA_mem_right_track_0\.sky130_fd_sc_hd__dfxtp_1_3__CLK
*549 ANTENNA_mem_right_track_16\.sky130_fd_sc_hd__dfxtp_1_0__CLK
*550 ANTENNA_mem_right_track_16\.sky130_fd_sc_hd__dfxtp_1_1__CLK
*551 ANTENNA_mem_right_track_16\.sky130_fd_sc_hd__dfxtp_1_1__D
*552 ANTENNA_mem_right_track_16\.sky130_fd_sc_hd__dfxtp_1_2__CLK
*553 ANTENNA_mem_right_track_2\.sky130_fd_sc_hd__dfxtp_1_0__CLK
*554 ANTENNA_mem_right_track_2\.sky130_fd_sc_hd__dfxtp_1_1__CLK
*555 ANTENNA_mem_right_track_2\.sky130_fd_sc_hd__dfxtp_1_2__CLK
*556 ANTENNA_mem_right_track_2\.sky130_fd_sc_hd__dfxtp_1_3__CLK
*557 ANTENNA_mem_right_track_24\.sky130_fd_sc_hd__dfxtp_1_0__CLK
*558 ANTENNA_mem_right_track_24\.sky130_fd_sc_hd__dfxtp_1_1__CLK
*559 ANTENNA_mem_right_track_24\.sky130_fd_sc_hd__dfxtp_1_2__CLK
*560 ANTENNA_mem_right_track_32\.sky130_fd_sc_hd__dfxtp_1_0__CLK
*561 ANTENNA_mem_right_track_32\.sky130_fd_sc_hd__dfxtp_1_1__CLK
*562 ANTENNA_mem_right_track_32\.sky130_fd_sc_hd__dfxtp_1_2__CLK
*563 ANTENNA_mem_right_track_4\.sky130_fd_sc_hd__dfxtp_1_0__CLK
*564 ANTENNA_mem_right_track_4\.sky130_fd_sc_hd__dfxtp_1_1__CLK
*565 ANTENNA_mem_right_track_4\.sky130_fd_sc_hd__dfxtp_1_1__D
*566 ANTENNA_mem_right_track_4\.sky130_fd_sc_hd__dfxtp_1_2__CLK
*567 ANTENNA_mem_right_track_4\.sky130_fd_sc_hd__dfxtp_1_3__CLK
*568 ANTENNA_mem_right_track_8\.sky130_fd_sc_hd__dfxtp_1_0__CLK
*569 ANTENNA_mem_right_track_8\.sky130_fd_sc_hd__dfxtp_1_1__CLK
*570 ANTENNA_mem_right_track_8\.sky130_fd_sc_hd__dfxtp_1_2__CLK
*571 ANTENNA_mem_right_track_8\.sky130_fd_sc_hd__dfxtp_1_2__D
*572 ANTENNA_mem_right_track_8\.sky130_fd_sc_hd__dfxtp_1_3__CLK
*573 ANTENNA_mem_top_track_0\.sky130_fd_sc_hd__dfxtp_1_0__CLK
*574 ANTENNA_mem_top_track_0\.sky130_fd_sc_hd__dfxtp_1_0__D
*575 ANTENNA_mem_top_track_0\.sky130_fd_sc_hd__dfxtp_1_1__CLK
*576 ANTENNA_mem_top_track_0\.sky130_fd_sc_hd__dfxtp_1_2__CLK
*577 ANTENNA_mem_top_track_0\.sky130_fd_sc_hd__dfxtp_1_2__D
*578 ANTENNA_mem_top_track_0\.sky130_fd_sc_hd__dfxtp_1_3__CLK
*579 ANTENNA_mem_top_track_10\.sky130_fd_sc_hd__dfxtp_1_0__CLK
*580 ANTENNA_mem_top_track_10\.sky130_fd_sc_hd__dfxtp_1_1__CLK
*581 ANTENNA_mem_top_track_10\.sky130_fd_sc_hd__dfxtp_1_2__CLK
*582 ANTENNA_mem_top_track_12\.sky130_fd_sc_hd__dfxtp_1_0__CLK
*583 ANTENNA_mem_top_track_12\.sky130_fd_sc_hd__dfxtp_1_1__CLK
*584 ANTENNA_mem_top_track_14\.sky130_fd_sc_hd__dfxtp_1_0__CLK
*585 ANTENNA_mem_top_track_14\.sky130_fd_sc_hd__dfxtp_1_1__CLK
*586 ANTENNA_mem_top_track_16\.sky130_fd_sc_hd__dfxtp_1_0__CLK
*587 ANTENNA_mem_top_track_16\.sky130_fd_sc_hd__dfxtp_1_1__CLK
*588 ANTENNA_mem_top_track_18\.sky130_fd_sc_hd__dfxtp_1_0__CLK
*589 ANTENNA_mem_top_track_18\.sky130_fd_sc_hd__dfxtp_1_1__CLK
*590 ANTENNA_mem_top_track_2\.sky130_fd_sc_hd__dfxtp_1_0__CLK
*591 ANTENNA_mem_top_track_2\.sky130_fd_sc_hd__dfxtp_1_1__CLK
*592 ANTENNA_mem_top_track_2\.sky130_fd_sc_hd__dfxtp_1_1__D
*593 ANTENNA_mem_top_track_2\.sky130_fd_sc_hd__dfxtp_1_2__CLK
*594 ANTENNA_mem_top_track_2\.sky130_fd_sc_hd__dfxtp_1_2__D
*595 ANTENNA_mem_top_track_20\.sky130_fd_sc_hd__dfxtp_1_0__CLK
*596 ANTENNA_mem_top_track_20\.sky130_fd_sc_hd__dfxtp_1_1__CLK
*597 ANTENNA_mem_top_track_22\.sky130_fd_sc_hd__dfxtp_1_0__CLK
*598 ANTENNA_mem_top_track_22\.sky130_fd_sc_hd__dfxtp_1_1__CLK
*599 ANTENNA_mem_top_track_24\.sky130_fd_sc_hd__dfxtp_1_0__CLK
*600 ANTENNA_mem_top_track_24\.sky130_fd_sc_hd__dfxtp_1_1__CLK
*601 ANTENNA_mem_top_track_38\.sky130_fd_sc_hd__dfxtp_1_0__CLK
*602 ANTENNA_mem_top_track_38\.sky130_fd_sc_hd__dfxtp_1_1__CLK
*603 ANTENNA_mem_top_track_4\.sky130_fd_sc_hd__dfxtp_1_0__CLK
*604 ANTENNA_mem_top_track_4\.sky130_fd_sc_hd__dfxtp_1_1__CLK
*605 ANTENNA_mem_top_track_4\.sky130_fd_sc_hd__dfxtp_1_1__D
*606 ANTENNA_mem_top_track_4\.sky130_fd_sc_hd__dfxtp_1_2__CLK
*607 ANTENNA_mem_top_track_4\.sky130_fd_sc_hd__dfxtp_1_2__D
*608 ANTENNA_mem_top_track_6\.sky130_fd_sc_hd__dfxtp_1_0__CLK
*609 ANTENNA_mem_top_track_6\.sky130_fd_sc_hd__dfxtp_1_1__CLK
*610 ANTENNA_mem_top_track_6\.sky130_fd_sc_hd__dfxtp_1_1__D
*611 ANTENNA_mem_top_track_6\.sky130_fd_sc_hd__dfxtp_1_2__CLK
*612 ANTENNA_mem_top_track_8\.sky130_fd_sc_hd__dfxtp_1_0__CLK
*613 ANTENNA_mem_top_track_8\.sky130_fd_sc_hd__dfxtp_1_1__CLK
*614 ANTENNA_mem_top_track_8\.sky130_fd_sc_hd__dfxtp_1_2__CLK
*615 ANTENNA_mux_left_track_1\.mux_l1_in_0__A0
*616 ANTENNA_mux_left_track_1\.mux_l1_in_0__A1
*617 ANTENNA_mux_left_track_1\.mux_l1_in_1__A0
*618 ANTENNA_mux_left_track_1\.mux_l1_in_1__A1
*619 ANTENNA_mux_left_track_1\.mux_l1_in_2__A0
*620 ANTENNA_mux_left_track_1\.mux_l1_in_2__A1
*621 ANTENNA_mux_left_track_1\.mux_l2_in_1__A0
*622 ANTENNA_mux_left_track_1\.mux_l2_in_2__A0
*623 ANTENNA_mux_left_track_1\.mux_l2_in_2__A1
*624 ANTENNA_mux_left_track_1\.mux_l2_in_3__A1
*625 ANTENNA_mux_left_track_17\.mux_l1_in_0__A0
*626 ANTENNA_mux_left_track_17\.mux_l1_in_0__A1
*627 ANTENNA_mux_left_track_17\.mux_l1_in_0__S
*628 ANTENNA_mux_left_track_17\.mux_l1_in_1__A0
*629 ANTENNA_mux_left_track_17\.mux_l1_in_1__A1
*630 ANTENNA_mux_left_track_17\.mux_l1_in_1__S
*631 ANTENNA_mux_left_track_17\.mux_l1_in_2__A0
*632 ANTENNA_mux_left_track_17\.mux_l1_in_2__A1
*633 ANTENNA_mux_left_track_17\.mux_l1_in_2__S
*634 ANTENNA_mux_left_track_17\.mux_l1_in_3__A1
*635 ANTENNA_mux_left_track_17\.mux_l1_in_3__S
*636 ANTENNA_mux_left_track_25\.mux_l1_in_0__A0
*637 ANTENNA_mux_left_track_25\.mux_l1_in_0__A1
*638 ANTENNA_mux_left_track_25\.mux_l1_in_1__A0
*639 ANTENNA_mux_left_track_25\.mux_l1_in_1__A1
*640 ANTENNA_mux_left_track_25\.mux_l1_in_2__A0
*641 ANTENNA_mux_left_track_25\.mux_l1_in_2__A1
*642 ANTENNA_mux_left_track_25\.mux_l1_in_3__A1
*643 ANTENNA_mux_left_track_3\.mux_l1_in_0__A0
*644 ANTENNA_mux_left_track_3\.mux_l1_in_0__A1
*645 ANTENNA_mux_left_track_3\.mux_l2_in_0__A0
*646 ANTENNA_mux_left_track_3\.mux_l2_in_1__A0
*647 ANTENNA_mux_left_track_3\.mux_l2_in_1__A1
*648 ANTENNA_mux_left_track_3\.mux_l2_in_2__A0
*649 ANTENNA_mux_left_track_3\.mux_l2_in_2__A1
*650 ANTENNA_mux_left_track_3\.mux_l2_in_3__A1
*651 ANTENNA_mux_left_track_33\.mux_l1_in_0__A0
*652 ANTENNA_mux_left_track_33\.mux_l1_in_0__A1
*653 ANTENNA_mux_left_track_33\.mux_l1_in_0__S
*654 ANTENNA_mux_left_track_33\.mux_l1_in_1__A0
*655 ANTENNA_mux_left_track_33\.mux_l1_in_1__A1
*656 ANTENNA_mux_left_track_33\.mux_l1_in_1__S
*657 ANTENNA_mux_left_track_33\.mux_l1_in_2__A0
*658 ANTENNA_mux_left_track_33\.mux_l1_in_2__A1
*659 ANTENNA_mux_left_track_33\.mux_l1_in_2__S
*660 ANTENNA_mux_left_track_5\.mux_l1_in_0__A0
*661 ANTENNA_mux_left_track_5\.mux_l1_in_0__A1
*662 ANTENNA_mux_left_track_5\.mux_l1_in_0__S
*663 ANTENNA_mux_left_track_5\.mux_l1_in_1__A0
*664 ANTENNA_mux_left_track_5\.mux_l1_in_1__A1
*665 ANTENNA_mux_left_track_5\.mux_l1_in_1__S
*666 ANTENNA_mux_left_track_5\.mux_l1_in_2__A0
*667 ANTENNA_mux_left_track_5\.mux_l1_in_2__A1
*668 ANTENNA_mux_left_track_5\.mux_l1_in_2__S
*669 ANTENNA_mux_left_track_5\.mux_l1_in_3__A0
*670 ANTENNA_mux_left_track_5\.mux_l1_in_3__A1
*671 ANTENNA_mux_left_track_5\.mux_l1_in_3__S
*672 ANTENNA_mux_left_track_5\.mux_l1_in_4__A0
*673 ANTENNA_mux_left_track_5\.mux_l1_in_4__A1
*674 ANTENNA_mux_left_track_5\.mux_l1_in_4__S
*675 ANTENNA_mux_left_track_5\.mux_l1_in_5__A0
*676 ANTENNA_mux_left_track_5\.mux_l1_in_5__A1
*677 ANTENNA_mux_left_track_5\.mux_l1_in_5__S
*678 ANTENNA_mux_left_track_5\.mux_l1_in_6__A0
*679 ANTENNA_mux_left_track_5\.mux_l1_in_6__A1
*680 ANTENNA_mux_left_track_5\.mux_l1_in_6__S
*681 ANTENNA_mux_left_track_9\.mux_l1_in_0__A0
*682 ANTENNA_mux_left_track_9\.mux_l1_in_0__A1
*683 ANTENNA_mux_left_track_9\.mux_l2_in_0__A0
*684 ANTENNA_mux_left_track_9\.mux_l2_in_0__S
*685 ANTENNA_mux_left_track_9\.mux_l2_in_1__A0
*686 ANTENNA_mux_left_track_9\.mux_l2_in_1__A1
*687 ANTENNA_mux_left_track_9\.mux_l2_in_1__S
*688 ANTENNA_mux_left_track_9\.mux_l2_in_2__A0
*689 ANTENNA_mux_left_track_9\.mux_l2_in_2__A1
*690 ANTENNA_mux_left_track_9\.mux_l2_in_2__S
*691 ANTENNA_mux_left_track_9\.mux_l2_in_3__A1
*692 ANTENNA_mux_left_track_9\.mux_l2_in_3__S
*693 ANTENNA_mux_right_track_0\.mux_l1_in_0__A0
*694 ANTENNA_mux_right_track_0\.mux_l1_in_0__A1
*695 ANTENNA_mux_right_track_0\.mux_l1_in_1__A0
*696 ANTENNA_mux_right_track_0\.mux_l1_in_1__A1
*697 ANTENNA_mux_right_track_0\.mux_l2_in_1__A0
*698 ANTENNA_mux_right_track_0\.mux_l2_in_1__A1
*699 ANTENNA_mux_right_track_0\.mux_l2_in_2__A0
*700 ANTENNA_mux_right_track_0\.mux_l2_in_2__A1
*701 ANTENNA_mux_right_track_0\.mux_l2_in_3__A1
*702 ANTENNA_mux_right_track_16\.mux_l1_in_0__A0
*703 ANTENNA_mux_right_track_16\.mux_l1_in_0__A1
*704 ANTENNA_mux_right_track_16\.mux_l1_in_0__S
*705 ANTENNA_mux_right_track_16\.mux_l1_in_1__A0
*706 ANTENNA_mux_right_track_16\.mux_l1_in_1__A1
*707 ANTENNA_mux_right_track_16\.mux_l1_in_1__S
*708 ANTENNA_mux_right_track_16\.mux_l1_in_2__A0
*709 ANTENNA_mux_right_track_16\.mux_l1_in_2__A1
*710 ANTENNA_mux_right_track_16\.mux_l1_in_2__S
*711 ANTENNA_mux_right_track_16\.mux_l1_in_3__A1
*712 ANTENNA_mux_right_track_16\.mux_l1_in_3__S
*713 ANTENNA_mux_right_track_2\.mux_l1_in_0__A0
*714 ANTENNA_mux_right_track_2\.mux_l1_in_0__A1
*715 ANTENNA_mux_right_track_2\.mux_l1_in_1__A0
*716 ANTENNA_mux_right_track_2\.mux_l1_in_1__A1
*717 ANTENNA_mux_right_track_2\.mux_l2_in_1__A0
*718 ANTENNA_mux_right_track_2\.mux_l2_in_1__A1
*719 ANTENNA_mux_right_track_2\.mux_l2_in_2__A0
*720 ANTENNA_mux_right_track_2\.mux_l2_in_2__A1
*721 ANTENNA_mux_right_track_2\.mux_l2_in_3__A1
*722 ANTENNA_mux_right_track_24\.mux_l1_in_0__A0
*723 ANTENNA_mux_right_track_24\.mux_l1_in_0__A1
*724 ANTENNA_mux_right_track_24\.mux_l1_in_1__A0
*725 ANTENNA_mux_right_track_24\.mux_l1_in_1__A1
*726 ANTENNA_mux_right_track_24\.mux_l1_in_2__A0
*727 ANTENNA_mux_right_track_24\.mux_l1_in_2__A1
*728 ANTENNA_mux_right_track_24\.mux_l1_in_3__A1
*729 ANTENNA_mux_right_track_32\.mux_l1_in_0__A0
*730 ANTENNA_mux_right_track_32\.mux_l1_in_0__A1
*731 ANTENNA_mux_right_track_32\.mux_l1_in_1__A0
*732 ANTENNA_mux_right_track_32\.mux_l1_in_1__A1
*733 ANTENNA_mux_right_track_32\.mux_l1_in_2__A0
*734 ANTENNA_mux_right_track_32\.mux_l1_in_2__A1
*735 ANTENNA_mux_right_track_4\.mux_l1_in_0__A0