*SPEF "ieee 1481-1999"
*DESIGN "sb_1__1_"
*DATE "11:11:11 Fri 11 11, 1111"
*VENDOR "OpenRCX"
*PROGRAM "Parallel Extraction"
*VERSION "1.0"
*DESIGN_FLOW "NAME_SCOPE LOCAL" "PIN_CAP NONE"
*DIVIDER /
*DELIMITER :
*BUS_DELIMITER []
*T_UNIT 1 NS
*C_UNIT 1 PF
*R_UNIT 1 OHM
*L_UNIT 1 HENRY

*NAME_MAP
*1 Test_en_N_out
*2 Test_en_S_in
*5 bottom_left_grid_pin_42_
*6 bottom_left_grid_pin_43_
*7 bottom_left_grid_pin_44_
*8 bottom_left_grid_pin_45_
*9 bottom_left_grid_pin_46_
*10 bottom_left_grid_pin_47_
*11 bottom_left_grid_pin_48_
*12 bottom_left_grid_pin_49_
*13 ccff_head
*14 ccff_tail
*15 chanx_left_in[0]
*16 chanx_left_in[10]
*17 chanx_left_in[11]
*18 chanx_left_in[12]
*19 chanx_left_in[13]
*20 chanx_left_in[14]
*21 chanx_left_in[15]
*22 chanx_left_in[16]
*23 chanx_left_in[17]
*24 chanx_left_in[18]
*25 chanx_left_in[19]
*26 chanx_left_in[1]
*27 chanx_left_in[2]
*28 chanx_left_in[3]
*29 chanx_left_in[4]
*30 chanx_left_in[5]
*31 chanx_left_in[6]
*32 chanx_left_in[7]
*33 chanx_left_in[8]
*34 chanx_left_in[9]
*35 chanx_left_out[0]
*36 chanx_left_out[10]
*37 chanx_left_out[11]
*38 chanx_left_out[12]
*39 chanx_left_out[13]
*40 chanx_left_out[14]
*41 chanx_left_out[15]
*42 chanx_left_out[16]
*43 chanx_left_out[17]
*44 chanx_left_out[18]
*45 chanx_left_out[19]
*46 chanx_left_out[1]
*47 chanx_left_out[2]
*48 chanx_left_out[3]
*49 chanx_left_out[4]
*50 chanx_left_out[5]
*51 chanx_left_out[6]
*52 chanx_left_out[7]
*53 chanx_left_out[8]
*54 chanx_left_out[9]
*55 chanx_right_in[0]
*56 chanx_right_in[10]
*57 chanx_right_in[11]
*58 chanx_right_in[12]
*59 chanx_right_in[13]
*60 chanx_right_in[14]
*61 chanx_right_in[15]
*62 chanx_right_in[16]
*63 chanx_right_in[17]
*64 chanx_right_in[18]
*65 chanx_right_in[19]
*66 chanx_right_in[1]
*67 chanx_right_in[2]
*68 chanx_right_in[3]
*69 chanx_right_in[4]
*70 chanx_right_in[5]
*71 chanx_right_in[6]
*72 chanx_right_in[7]
*73 chanx_right_in[8]
*74 chanx_right_in[9]
*75 chanx_right_out[0]
*76 chanx_right_out[10]
*77 chanx_right_out[11]
*78 chanx_right_out[12]
*79 chanx_right_out[13]
*80 chanx_right_out[14]
*81 chanx_right_out[15]
*82 chanx_right_out[16]
*83 chanx_right_out[17]
*84 chanx_right_out[18]
*85 chanx_right_out[19]
*86 chanx_right_out[1]
*87 chanx_right_out[2]
*88 chanx_right_out[3]
*89 chanx_right_out[4]
*90 chanx_right_out[5]
*91 chanx_right_out[6]
*92 chanx_right_out[7]
*93 chanx_right_out[8]
*94 chanx_right_out[9]
*95 chany_bottom_in[0]
*96 chany_bottom_in[10]
*97 chany_bottom_in[11]
*98 chany_bottom_in[12]
*99 chany_bottom_in[13]
*100 chany_bottom_in[14]
*101 chany_bottom_in[15]
*102 chany_bottom_in[16]
*103 chany_bottom_in[17]
*104 chany_bottom_in[18]
*105 chany_bottom_in[19]
*106 chany_bottom_in[1]
*107 chany_bottom_in[2]
*108 chany_bottom_in[3]
*109 chany_bottom_in[4]
*110 chany_bottom_in[5]
*111 chany_bottom_in[6]
*112 chany_bottom_in[7]
*113 chany_bottom_in[8]
*114 chany_bottom_in[9]
*115 chany_bottom_out[0]
*116 chany_bottom_out[10]
*117 chany_bottom_out[11]
*118 chany_bottom_out[12]
*119 chany_bottom_out[13]
*120 chany_bottom_out[14]
*121 chany_bottom_out[15]
*122 chany_bottom_out[16]
*123 chany_bottom_out[17]
*124 chany_bottom_out[18]
*125 chany_bottom_out[19]
*126 chany_bottom_out[1]
*127 chany_bottom_out[2]
*128 chany_bottom_out[3]
*129 chany_bottom_out[4]
*130 chany_bottom_out[5]
*131 chany_bottom_out[6]
*132 chany_bottom_out[7]
*133 chany_bottom_out[8]
*134 chany_bottom_out[9]
*135 chany_top_in[0]
*136 chany_top_in[10]
*137 chany_top_in[11]
*138 chany_top_in[12]
*139 chany_top_in[13]
*140 chany_top_in[14]
*141 chany_top_in[15]
*142 chany_top_in[16]
*143 chany_top_in[17]
*144 chany_top_in[18]
*145 chany_top_in[19]
*146 chany_top_in[1]
*147 chany_top_in[2]
*148 chany_top_in[3]
*149 chany_top_in[4]
*150 chany_top_in[5]
*151 chany_top_in[6]
*152 chany_top_in[7]
*153 chany_top_in[8]
*154 chany_top_in[9]
*155 chany_top_out[0]
*156 chany_top_out[10]
*157 chany_top_out[11]
*158 chany_top_out[12]
*159 chany_top_out[13]
*160 chany_top_out[14]
*161 chany_top_out[15]
*162 chany_top_out[16]
*163 chany_top_out[17]
*164 chany_top_out[18]
*165 chany_top_out[19]
*166 chany_top_out[1]
*167 chany_top_out[2]
*168 chany_top_out[3]
*169 chany_top_out[4]
*170 chany_top_out[5]
*171 chany_top_out[6]
*172 chany_top_out[7]
*173 chany_top_out[8]
*174 chany_top_out[9]
*175 clk_1_E_out
*176 clk_1_N_in
*177 clk_1_W_out
*178 clk_2_E_out
*179 clk_2_N_in
*180 clk_2_N_out
*181 clk_2_S_out
*182 clk_2_W_out
*183 clk_3_E_out
*184 clk_3_N_in
*185 clk_3_N_out
*186 clk_3_S_out
*187 clk_3_W_out
*188 left_bottom_grid_pin_34_
*189 left_bottom_grid_pin_35_
*190 left_bottom_grid_pin_36_
*191 left_bottom_grid_pin_37_
*192 left_bottom_grid_pin_38_
*193 left_bottom_grid_pin_39_
*194 left_bottom_grid_pin_40_
*195 left_bottom_grid_pin_41_
*196 prog_clk_0_N_in
*197 prog_clk_1_E_out
*198 prog_clk_1_N_in
*199 prog_clk_1_W_out
*200 prog_clk_2_E_out
*201 prog_clk_2_N_in
*202 prog_clk_2_N_out
*203 prog_clk_2_S_out
*204 prog_clk_2_W_out
*205 prog_clk_3_E_out
*206 prog_clk_3_N_in
*207 prog_clk_3_N_out
*208 prog_clk_3_S_out
*209 prog_clk_3_W_out
*210 right_bottom_grid_pin_34_
*211 right_bottom_grid_pin_35_
*212 right_bottom_grid_pin_36_
*213 right_bottom_grid_pin_37_
*214 right_bottom_grid_pin_38_
*215 right_bottom_grid_pin_39_
*216 right_bottom_grid_pin_40_
*217 right_bottom_grid_pin_41_
*218 top_left_grid_pin_42_
*219 top_left_grid_pin_43_
*220 top_left_grid_pin_44_
*221 top_left_grid_pin_45_
*222 top_left_grid_pin_46_
*223 top_left_grid_pin_47_
*224 top_left_grid_pin_48_
*225 top_left_grid_pin_49_
*226 mem_bottom_track_1\.ccff_head
*227 mem_bottom_track_1\.ccff_tail
*228 mem_bottom_track_1\.mem_out\[0\]
*229 mem_bottom_track_1\.mem_out\[1\]
*230 mem_bottom_track_1\.mem_out\[2\]
*231 mem_bottom_track_1\.prog_clk
*232 mem_bottom_track_17\.ccff_head
*233 mem_bottom_track_17\.ccff_tail
*234 mem_bottom_track_17\.mem_out\[0\]
*235 mem_bottom_track_17\.mem_out\[1\]
*236 mem_bottom_track_17\.mem_out\[2\]
*237 mem_bottom_track_25\.ccff_tail
*238 mem_bottom_track_25\.mem_out\[0\]
*239 mem_bottom_track_25\.mem_out\[1\]
*240 mem_bottom_track_25\.mem_out\[2\]
*241 mem_bottom_track_3\.ccff_tail
*242 mem_bottom_track_3\.mem_out\[0\]
*243 mem_bottom_track_3\.mem_out\[1\]
*244 mem_bottom_track_3\.mem_out\[2\]
*245 mem_bottom_track_33\.ccff_tail
*246 mem_bottom_track_33\.mem_out\[0\]
*247 mem_bottom_track_33\.mem_out\[1\]
*248 mem_bottom_track_5\.ccff_tail
*249 mem_bottom_track_5\.mem_out\[0\]
*250 mem_bottom_track_5\.mem_out\[1\]
*251 mem_bottom_track_5\.mem_out\[2\]
*252 mem_bottom_track_5\.mem_out\[3\]
*253 mem_bottom_track_9\.mem_out\[0\]
*254 mem_bottom_track_9\.mem_out\[1\]
*255 mem_bottom_track_9\.mem_out\[2\]
*256 mem_left_track_1\.ccff_tail
*257 mem_left_track_1\.mem_out\[0\]
*258 mem_left_track_1\.mem_out\[1\]
*259 mem_left_track_1\.mem_out\[2\]
*260 mem_left_track_17\.ccff_head
*261 mem_left_track_17\.ccff_tail
*262 mem_left_track_17\.mem_out\[0\]
*263 mem_left_track_17\.mem_out\[1\]
*264 mem_left_track_17\.mem_out\[2\]
*265 mem_left_track_25\.ccff_tail
*266 mem_left_track_25\.mem_out\[0\]
*267 mem_left_track_25\.mem_out\[1\]
*268 mem_left_track_25\.mem_out\[2\]
*269 mem_left_track_3\.ccff_tail
*270 mem_left_track_3\.mem_out\[0\]
*271 mem_left_track_3\.mem_out\[1\]
*272 mem_left_track_3\.mem_out\[2\]
*273 mem_left_track_33\.mem_out\[0\]
*274 mem_left_track_33\.mem_out\[1\]
*275 mem_left_track_5\.ccff_tail
*276 mem_left_track_5\.mem_out\[0\]
*277 mem_left_track_5\.mem_out\[1\]
*278 mem_left_track_5\.mem_out\[2\]
*279 mem_left_track_5\.mem_out\[3\]
*280 mem_left_track_9\.mem_out\[0\]
*281 mem_left_track_9\.mem_out\[1\]
*282 mem_left_track_9\.mem_out\[2\]
*283 mem_right_track_0\.ccff_head
*284 mem_right_track_0\.ccff_tail
*285 mem_right_track_0\.mem_out\[0\]
*286 mem_right_track_0\.mem_out\[1\]
*287 mem_right_track_0\.mem_out\[2\]
*288 mem_right_track_16\.ccff_head
*289 mem_right_track_16\.ccff_tail
*290 mem_right_track_16\.mem_out\[0\]
*291 mem_right_track_16\.mem_out\[1\]
*292 mem_right_track_16\.mem_out\[2\]
*293 mem_right_track_2\.ccff_tail
*294 mem_right_track_2\.mem_out\[0\]
*295 mem_right_track_2\.mem_out\[1\]
*296 mem_right_track_2\.mem_out\[2\]
*297 mem_right_track_24\.ccff_tail
*298 mem_right_track_24\.mem_out\[0\]
*299 mem_right_track_24\.mem_out\[1\]
*300 mem_right_track_24\.mem_out\[2\]
*301 mem_right_track_32\.mem_out\[0\]
*302 mem_right_track_32\.mem_out\[1\]
*303 mem_right_track_4\.ccff_tail
*304 mem_right_track_4\.mem_out\[0\]
*305 mem_right_track_4\.mem_out\[1\]
*306 mem_right_track_4\.mem_out\[2\]
*307 mem_right_track_4\.mem_out\[3\]
*308 mem_right_track_8\.mem_out\[0\]
*309 mem_right_track_8\.mem_out\[1\]
*310 mem_right_track_8\.mem_out\[2\]
*311 mem_top_track_0\.ccff_tail
*312 mem_top_track_0\.mem_out\[0\]
*313 mem_top_track_0\.mem_out\[1\]
*314 mem_top_track_0\.mem_out\[2\]
*315 mem_top_track_16\.ccff_head
*316 mem_top_track_16\.ccff_tail
*317 mem_top_track_16\.mem_out\[0\]
*318 mem_top_track_16\.mem_out\[1\]
*319 mem_top_track_16\.mem_out\[2\]
*320 mem_top_track_2\.ccff_tail
*321 mem_top_track_2\.mem_out\[0\]
*322 mem_top_track_2\.mem_out\[1\]
*323 mem_top_track_2\.mem_out\[2\]
*324 mem_top_track_24\.ccff_tail
*325 mem_top_track_24\.mem_out\[0\]
*326 mem_top_track_24\.mem_out\[1\]
*327 mem_top_track_24\.mem_out\[2\]
*328 mem_top_track_32\.mem_out\[0\]
*329 mem_top_track_32\.mem_out\[1\]
*330 mem_top_track_4\.ccff_tail
*331 mem_top_track_4\.mem_out\[0\]
*332 mem_top_track_4\.mem_out\[1\]
*333 mem_top_track_4\.mem_out\[2\]
*334 mem_top_track_4\.mem_out\[3\]
*335 mem_top_track_8\.mem_out\[0\]
*336 mem_top_track_8\.mem_out\[1\]
*337 mem_top_track_8\.mem_out\[2\]
*338 mux_bottom_track_1\.out
*339 mux_bottom_track_1\.sky130_fd_sc_hd__mux2_1_0_X
*340 mux_bottom_track_1\.sky130_fd_sc_hd__mux2_1_10_X
*341 mux_bottom_track_1\.sky130_fd_sc_hd__mux2_1_11_X
*342 mux_bottom_track_1\.sky130_fd_sc_hd__mux2_1_1_X
*343 mux_bottom_track_1\.sky130_fd_sc_hd__mux2_1_2_X
*344 mux_bottom_track_1\.sky130_fd_sc_hd__mux2_1_3_X
*345 mux_bottom_track_1\.sky130_fd_sc_hd__mux2_1_4_X
*346 mux_bottom_track_1\.sky130_fd_sc_hd__mux2_1_5_X
*347 mux_bottom_track_1\.sky130_fd_sc_hd__mux2_1_6_X
*348 mux_bottom_track_1\.sky130_fd_sc_hd__mux2_1_7_X
*349 mux_bottom_track_1\.sky130_fd_sc_hd__mux2_1_8_X
*350 mux_bottom_track_1\.sky130_fd_sc_hd__mux2_1_9_X
*351 mux_bottom_track_17\.out
*352 mux_bottom_track_17\.sky130_fd_sc_hd__mux2_1_0_X
*353 mux_bottom_track_17\.sky130_fd_sc_hd__mux2_1_1_X
*354 mux_bottom_track_17\.sky130_fd_sc_hd__mux2_1_2_X
*355 mux_bottom_track_17\.sky130_fd_sc_hd__mux2_1_3_X
*356 mux_bottom_track_17\.sky130_fd_sc_hd__mux2_1_4_X
*357 mux_bottom_track_17\.sky130_fd_sc_hd__mux2_1_5_X
*358 mux_bottom_track_17\.sky130_fd_sc_hd__mux2_1_6_X
*359 mux_bottom_track_17\.sky130_fd_sc_hd__mux2_1_7_X
*360 mux_bottom_track_17\.sky130_fd_sc_hd__mux2_1_8_X
*361 mux_bottom_track_17\.sky130_fd_sc_hd__mux2_1_9_X
*362 mux_bottom_track_25\.out
*363 mux_bottom_track_25\.sky130_fd_sc_hd__mux2_1_0_X
*364 mux_bottom_track_25\.sky130_fd_sc_hd__mux2_1_1_X
*365 mux_bottom_track_25\.sky130_fd_sc_hd__mux2_1_2_X
*366 mux_bottom_track_25\.sky130_fd_sc_hd__mux2_1_3_X
*367 mux_bottom_track_25\.sky130_fd_sc_hd__mux2_1_4_X
*368 mux_bottom_track_25\.sky130_fd_sc_hd__mux2_1_5_X
*369 mux_bottom_track_25\.sky130_fd_sc_hd__mux2_1_6_X
*370 mux_bottom_track_25\.sky130_fd_sc_hd__mux2_1_7_X
*371 mux_bottom_track_25\.sky130_fd_sc_hd__mux2_1_8_X
*372 mux_bottom_track_25\.sky130_fd_sc_hd__mux2_1_9_X
*373 mux_bottom_track_3\.out
*374 mux_bottom_track_3\.sky130_fd_sc_hd__mux2_1_0_X
*375 mux_bottom_track_3\.sky130_fd_sc_hd__mux2_1_10_X
*376 mux_bottom_track_3\.sky130_fd_sc_hd__mux2_1_11_X
*377 mux_bottom_track_3\.sky130_fd_sc_hd__mux2_1_1_X
*378 mux_bottom_track_3\.sky130_fd_sc_hd__mux2_1_2_X
*379 mux_bottom_track_3\.sky130_fd_sc_hd__mux2_1_3_X
*380 mux_bottom_track_3\.sky130_fd_sc_hd__mux2_1_4_X
*381 mux_bottom_track_3\.sky130_fd_sc_hd__mux2_1_5_X
*382 mux_bottom_track_3\.sky130_fd_sc_hd__mux2_1_6_X
*383 mux_bottom_track_3\.sky130_fd_sc_hd__mux2_1_7_X
*384 mux_bottom_track_3\.sky130_fd_sc_hd__mux2_1_8_X
*385 mux_bottom_track_3\.sky130_fd_sc_hd__mux2_1_9_X
*386 mux_bottom_track_33\.out
*387 mux_bottom_track_33\.sky130_fd_sc_hd__mux2_1_0_X
*388 mux_bottom_track_33\.sky130_fd_sc_hd__mux2_1_1_X
*389 mux_bottom_track_33\.sky130_fd_sc_hd__mux2_1_2_X
*390 mux_bottom_track_33\.sky130_fd_sc_hd__mux2_1_3_X
*391 mux_bottom_track_33\.sky130_fd_sc_hd__mux2_1_4_X
*392 mux_bottom_track_33\.sky130_fd_sc_hd__mux2_1_5_X
*393 mux_bottom_track_33\.sky130_fd_sc_hd__mux2_1_6_X
*394 mux_bottom_track_5\.out
*395 mux_bottom_track_5\.sky130_fd_sc_hd__mux2_1_0_X
*396 mux_bottom_track_5\.sky130_fd_sc_hd__mux2_1_10_X
*397 mux_bottom_track_5\.sky130_fd_sc_hd__mux2_1_11_X
*398 mux_bottom_track_5\.sky130_fd_sc_hd__mux2_1_12_X
*399 mux_bottom_track_5\.sky130_fd_sc_hd__mux2_1_13_X
*400 mux_bottom_track_5\.sky130_fd_sc_hd__mux2_1_14_X
*401 mux_bottom_track_5\.sky130_fd_sc_hd__mux2_1_15_X
*402 mux_bottom_track_5\.sky130_fd_sc_hd__mux2_1_1_X
*403 mux_bottom_track_5\.sky130_fd_sc_hd__mux2_1_2_X
*404 mux_bottom_track_5\.sky130_fd_sc_hd__mux2_1_3_X
*405 mux_bottom_track_5\.sky130_fd_sc_hd__mux2_1_4_X
*406 mux_bottom_track_5\.sky130_fd_sc_hd__mux2_1_5_X
*407 mux_bottom_track_5\.sky130_fd_sc_hd__mux2_1_6_X
*408 mux_bottom_track_5\.sky130_fd_sc_hd__mux2_1_7_X
*409 mux_bottom_track_5\.sky130_fd_sc_hd__mux2_1_8_X
*410 mux_bottom_track_5\.sky130_fd_sc_hd__mux2_1_9_X
*411 mux_bottom_track_9\.out
*412 mux_bottom_track_9\.sky130_fd_sc_hd__mux2_1_0_X
*413 mux_bottom_track_9\.sky130_fd_sc_hd__mux2_1_1_X
*414 mux_bottom_track_9\.sky130_fd_sc_hd__mux2_1_2_X
*415 mux_bottom_track_9\.sky130_fd_sc_hd__mux2_1_3_X
*416 mux_bottom_track_9\.sky130_fd_sc_hd__mux2_1_4_X
*417 mux_bottom_track_9\.sky130_fd_sc_hd__mux2_1_5_X
*418 mux_bottom_track_9\.sky130_fd_sc_hd__mux2_1_6_X
*419 mux_bottom_track_9\.sky130_fd_sc_hd__mux2_1_7_X
*420 mux_bottom_track_9\.sky130_fd_sc_hd__mux2_1_8_X
*421 mux_bottom_track_9\.sky130_fd_sc_hd__mux2_1_9_X
*422 mux_left_track_1\.out
*423 mux_left_track_1\.sky130_fd_sc_hd__mux2_1_0_X
*424 mux_left_track_1\.sky130_fd_sc_hd__mux2_1_10_X
*425 mux_left_track_1\.sky130_fd_sc_hd__mux2_1_11_X
*426 mux_left_track_1\.sky130_fd_sc_hd__mux2_1_1_X
*427 mux_left_track_1\.sky130_fd_sc_hd__mux2_1_2_X
*428 mux_left_track_1\.sky130_fd_sc_hd__mux2_1_3_X
*429 mux_left_track_1\.sky130_fd_sc_hd__mux2_1_4_X
*430 mux_left_track_1\.sky130_fd_sc_hd__mux2_1_5_X
*431 mux_left_track_1\.sky130_fd_sc_hd__mux2_1_6_X
*432 mux_left_track_1\.sky130_fd_sc_hd__mux2_1_7_X
*433 mux_left_track_1\.sky130_fd_sc_hd__mux2_1_8_X
*434 mux_left_track_1\.sky130_fd_sc_hd__mux2_1_9_X
*435 mux_left_track_17\.out
*436 mux_left_track_17\.sky130_fd_sc_hd__mux2_1_0_X
*437 mux_left_track_17\.sky130_fd_sc_hd__mux2_1_1_X
*438 mux_left_track_17\.sky130_fd_sc_hd__mux2_1_2_X
*439 mux_left_track_17\.sky130_fd_sc_hd__mux2_1_3_X
*440 mux_left_track_17\.sky130_fd_sc_hd__mux2_1_4_X
*441 mux_left_track_17\.sky130_fd_sc_hd__mux2_1_5_X
*442 mux_left_track_17\.sky130_fd_sc_hd__mux2_1_6_X
*443 mux_left_track_17\.sky130_fd_sc_hd__mux2_1_7_X
*444 mux_left_track_17\.sky130_fd_sc_hd__mux2_1_8_X
*445 mux_left_track_17\.sky130_fd_sc_hd__mux2_1_9_X
*446 mux_left_track_25\.out
*447 mux_left_track_25\.sky130_fd_sc_hd__mux2_1_0_X
*448 mux_left_track_25\.sky130_fd_sc_hd__mux2_1_1_X
*449 mux_left_track_25\.sky130_fd_sc_hd__mux2_1_2_X
*450 mux_left_track_25\.sky130_fd_sc_hd__mux2_1_3_X
*451 mux_left_track_25\.sky130_fd_sc_hd__mux2_1_4_X
*452 mux_left_track_25\.sky130_fd_sc_hd__mux2_1_5_X
*453 mux_left_track_25\.sky130_fd_sc_hd__mux2_1_6_X
*454 mux_left_track_25\.sky130_fd_sc_hd__mux2_1_7_X
*455 mux_left_track_25\.sky130_fd_sc_hd__mux2_1_8_X
*456 mux_left_track_25\.sky130_fd_sc_hd__mux2_1_9_X
*457 mux_left_track_3\.out
*458 mux_left_track_3\.sky130_fd_sc_hd__mux2_1_0_X
*459 mux_left_track_3\.sky130_fd_sc_hd__mux2_1_10_X
*460 mux_left_track_3\.sky130_fd_sc_hd__mux2_1_11_X
*461 mux_left_track_3\.sky130_fd_sc_hd__mux2_1_1_X
*462 mux_left_track_3\.sky130_fd_sc_hd__mux2_1_2_X
*463 mux_left_track_3\.sky130_fd_sc_hd__mux2_1_3_X
*464 mux_left_track_3\.sky130_fd_sc_hd__mux2_1_4_X
*465 mux_left_track_3\.sky130_fd_sc_hd__mux2_1_5_X
*466 mux_left_track_3\.sky130_fd_sc_hd__mux2_1_6_X
*467 mux_left_track_3\.sky130_fd_sc_hd__mux2_1_7_X
*468 mux_left_track_3\.sky130_fd_sc_hd__mux2_1_8_X
*469 mux_left_track_3\.sky130_fd_sc_hd__mux2_1_9_X
*470 mux_left_track_33\.out
*471 mux_left_track_33\.sky130_fd_sc_hd__mux2_1_0_X
*472 mux_left_track_33\.sky130_fd_sc_hd__mux2_1_1_X
*473 mux_left_track_33\.sky130_fd_sc_hd__mux2_1_2_X
*474 mux_left_track_33\.sky130_fd_sc_hd__mux2_1_3_X
*475 mux_left_track_33\.sky130_fd_sc_hd__mux2_1_4_X
*476 mux_left_track_33\.sky130_fd_sc_hd__mux2_1_5_X
*477 mux_left_track_33\.sky130_fd_sc_hd__mux2_1_6_X
*478 mux_left_track_5\.out
*479 mux_left_track_5\.sky130_fd_sc_hd__mux2_1_0_X
*480 mux_left_track_5\.sky130_fd_sc_hd__mux2_1_10_X
*481 mux_left_track_5\.sky130_fd_sc_hd__mux2_1_11_X
*482 mux_left_track_5\.sky130_fd_sc_hd__mux2_1_12_X
*483 mux_left_track_5\.sky130_fd_sc_hd__mux2_1_13_X
*484 mux_left_track_5\.sky130_fd_sc_hd__mux2_1_14_X
*485 mux_left_track_5\.sky130_fd_sc_hd__mux2_1_15_X
*486 mux_left_track_5\.sky130_fd_sc_hd__mux2_1_1_X
*487 mux_left_track_5\.sky130_fd_sc_hd__mux2_1_2_X
*488 mux_left_track_5\.sky130_fd_sc_hd__mux2_1_3_X
*489 mux_left_track_5\.sky130_fd_sc_hd__mux2_1_4_X
*490 mux_left_track_5\.sky130_fd_sc_hd__mux2_1_5_X
*491 mux_left_track_5\.sky130_fd_sc_hd__mux2_1_6_X
*492 mux_left_track_5\.sky130_fd_sc_hd__mux2_1_7_X
*493 mux_left_track_5\.sky130_fd_sc_hd__mux2_1_8_X
*494 mux_left_track_5\.sky130_fd_sc_hd__mux2_1_9_X
*495 mux_left_track_9\.out
*496 mux_left_track_9\.sky130_fd_sc_hd__mux2_1_0_X
*497 mux_left_track_9\.sky130_fd_sc_hd__mux2_1_1_X
*498 mux_left_track_9\.sky130_fd_sc_hd__mux2_1_2_X
*499 mux_left_track_9\.sky130_fd_sc_hd__mux2_1_3_X
*500 mux_left_track_9\.sky130_fd_sc_hd__mux2_1_4_X
*501 mux_left_track_9\.sky130_fd_sc_hd__mux2_1_5_X
*502 mux_left_track_9\.sky130_fd_sc_hd__mux2_1_6_X
*503 mux_left_track_9\.sky130_fd_sc_hd__mux2_1_7_X
*504 mux_left_track_9\.sky130_fd_sc_hd__mux2_1_8_X
*505 mux_left_track_9\.sky130_fd_sc_hd__mux2_1_9_X
*506 mux_right_track_0\.out
*507 mux_right_track_0\.sky130_fd_sc_hd__mux2_1_0_X
*508 mux_right_track_0\.sky130_fd_sc_hd__mux2_1_10_X
*509 mux_right_track_0\.sky130_fd_sc_hd__mux2_1_11_X
*510 mux_right_track_0\.sky130_fd_sc_hd__mux2_1_1_X
*511 mux_right_track_0\.sky130_fd_sc_hd__mux2_1_2_X
*512 mux_right_track_0\.sky130_fd_sc_hd__mux2_1_3_X
*513 mux_right_track_0\.sky130_fd_sc_hd__mux2_1_4_X
*514 mux_right_track_0\.sky130_fd_sc_hd__mux2_1_5_X
*515 mux_right_track_0\.sky130_fd_sc_hd__mux2_1_6_X
*516 mux_right_track_0\.sky130_fd_sc_hd__mux2_1_7_X
*517 mux_right_track_0\.sky130_fd_sc_hd__mux2_1_8_X
*518 mux_right_track_0\.sky130_fd_sc_hd__mux2_1_9_X
*519 mux_right_track_16\.out
*520 mux_right_track_16\.sky130_fd_sc_hd__mux2_1_0_X
*521 mux_right_track_16\.sky130_fd_sc_hd__mux2_1_1_X
*522 mux_right_track_16\.sky130_fd_sc_hd__mux2_1_2_X
*523 mux_right_track_16\.sky130_fd_sc_hd__mux2_1_3_X
*524 mux_right_track_16\.sky130_fd_sc_hd__mux2_1_4_X
*525 mux_right_track_16\.sky130_fd_sc_hd__mux2_1_5_X
*526 mux_right_track_16\.sky130_fd_sc_hd__mux2_1_6_X
*527 mux_right_track_16\.sky130_fd_sc_hd__mux2_1_7_X
*528 mux_right_track_16\.sky130_fd_sc_hd__mux2_1_8_X
*529 mux_right_track_16\.sky130_fd_sc_hd__mux2_1_9_X
*530 mux_right_track_2\.out
*531 mux_right_track_2\.sky130_fd_sc_hd__mux2_1_0_X
*532 mux_right_track_2\.sky130_fd_sc_hd__mux2_1_10_X
*533 mux_right_track_2\.sky130_fd_sc_hd__mux2_1_11_X
*534 mux_right_track_2\.sky130_fd_sc_hd__mux2_1_1_X
*535 mux_right_track_2\.sky130_fd_sc_hd__mux2_1_2_X
*536 mux_right_track_2\.sky130_fd_sc_hd__mux2_1_3_X
*537 mux_right_track_2\.sky130_fd_sc_hd__mux2_1_4_X
*538 mux_right_track_2\.sky130_fd_sc_hd__mux2_1_5_X
*539 mux_right_track_2\.sky130_fd_sc_hd__mux2_1_6_X
*540 mux_right_track_2\.sky130_fd_sc_hd__mux2_1_7_X
*541 mux_right_track_2\.sky130_fd_sc_hd__mux2_1_8_X
*542 mux_right_track_2\.sky130_fd_sc_hd__mux2_1_9_X
*543 mux_right_track_24\.out
*544 mux_right_track_24\.sky130_fd_sc_hd__mux2_1_0_X
*545 mux_right_track_24\.sky130_fd_sc_hd__mux2_1_1_X
*546 mux_right_track_24\.sky130_fd_sc_hd__mux2_1_2_X
*547 mux_right_track_24\.sky130_fd_sc_hd__mux2_1_3_X
*548 mux_right_track_24\.sky130_fd_sc_hd__mux2_1_4_X
*549 mux_right_track_24\.sky130_fd_sc_hd__mux2_1_5_X
*550 mux_right_track_24\.sky130_fd_sc_hd__mux2_1_6_X
*551 mux_right_track_24\.sky130_fd_sc_hd__mux2_1_7_X
*552 mux_right_track_24\.sky130_fd_sc_hd__mux2_1_8_X
*553 mux_right_track_24\.sky130_fd_sc_hd__mux2_1_9_X
*554 mux_right_track_32\.out
*555 mux_right_track_32\.sky130_fd_sc_hd__mux2_1_0_X
*556 mux_right_track_32\.sky130_fd_sc_hd__mux2_1_1_X
*557 mux_right_track_32\.sky130_fd_sc_hd__mux2_1_2_X
*558 mux_right_track_32\.sky130_fd_sc_hd__mux2_1_3_X
*559 mux_right_track_32\.sky130_fd_sc_hd__mux2_1_4_X
*560 mux_right_track_32\.sky130_fd_sc_hd__mux2_1_5_X
*561 mux_right_track_32\.sky130_fd_sc_hd__mux2_1_6_X
*562 mux_right_track_4\.out
*563 mux_right_track_4\.sky130_fd_sc_hd__mux2_1_0_X
*564 mux_right_track_4\.sky130_fd_sc_hd__mux2_1_10_X
*565 mux_right_track_4\.sky130_fd_sc_hd__mux2_1_11_X
*566 mux_right_track_4\.sky130_fd_sc_hd__mux2_1_12_X
*567 mux_right_track_4\.sky130_fd_sc_hd__mux2_1_13_X
*568 mux_right_track_4\.sky130_fd_sc_hd__mux2_1_14_X
*569 mux_right_track_4\.sky130_fd_sc_hd__mux2_1_15_X
*570 mux_right_track_4\.sky130_fd_sc_hd__mux2_1_1_X
*571 mux_right_track_4\.sky130_fd_sc_hd__mux2_1_2_X
*572 mux_right_track_4\.sky130_fd_sc_hd__mux2_1_3_X
*573 mux_right_track_4\.sky130_fd_sc_hd__mux2_1_4_X
*574 mux_right_track_4\.sky130_fd_sc_hd__mux2_1_5_X
*575 mux_right_track_4\.sky130_fd_sc_hd__mux2_1_6_X
*576 mux_right_track_4\.sky130_fd_sc_hd__mux2_1_7_X
*577 mux_right_track_4\.sky130_fd_sc_hd__mux2_1_8_X
*578 mux_right_track_4\.sky130_fd_sc_hd__mux2_1_9_X
*579 mux_right_track_8\.out
*580 mux_right_track_8\.sky130_fd_sc_hd__mux2_1_0_X
*581 mux_right_track_8\.sky130_fd_sc_hd__mux2_1_1_X
*582 mux_right_track_8\.sky130_fd_sc_hd__mux2_1_2_X
*583 mux_right_track_8\.sky130_fd_sc_hd__mux2_1_3_X
*584 mux_right_track_8\.sky130_fd_sc_hd__mux2_1_4_X
*585 mux_right_track_8\.sky130_fd_sc_hd__mux2_1_5_X
*586 mux_right_track_8\.sky130_fd_sc_hd__mux2_1_6_X
*587 mux_right_track_8\.sky130_fd_sc_hd__mux2_1_7_X
*588 mux_right_track_8\.sky130_fd_sc_hd__mux2_1_8_X
*589 mux_right_track_8\.sky130_fd_sc_hd__mux2_1_9_X
*590 mux_top_track_0\.out
*591 mux_top_track_0\.sky130_fd_sc_hd__mux2_1_0_X
*592 mux_top_track_0\.sky130_fd_sc_hd__mux2_1_10_X
*593 mux_top_track_0\.sky130_fd_sc_hd__mux2_1_11_X
*594 mux_top_track_0\.sky130_fd_sc_hd__mux2_1_1_X
*595 mux_top_track_0\.sky130_fd_sc_hd__mux2_1_2_X
*596 mux_top_track_0\.sky130_fd_sc_hd__mux2_1_3_X
*597 mux_top_track_0\.sky130_fd_sc_hd__mux2_1_4_X
*598 mux_top_track_0\.sky130_fd_sc_hd__mux2_1_5_X
*599 mux_top_track_0\.sky130_fd_sc_hd__mux2_1_6_X
*600 mux_top_track_0\.sky130_fd_sc_hd__mux2_1_7_X
*601 mux_top_track_0\.sky130_fd_sc_hd__mux2_1_8_X
*602 mux_top_track_0\.sky130_fd_sc_hd__mux2_1_9_X
*603 mux_top_track_16\.out
*604 mux_top_track_16\.sky130_fd_sc_hd__mux2_1_0_X
*605 mux_top_track_16\.sky130_fd_sc_hd__mux2_1_1_X
*606 mux_top_track_16\.sky130_fd_sc_hd__mux2_1_2_X
*607 mux_top_track_16\.sky130_fd_sc_hd__mux2_1_3_X
*608 mux_top_track_16\.sky130_fd_sc_hd__mux2_1_4_X
*609 mux_top_track_16\.sky130_fd_sc_hd__mux2_1_5_X
*610 mux_top_track_16\.sky130_fd_sc_hd__mux2_1_6_X
*611 mux_top_track_16\.sky130_fd_sc_hd__mux2_1_7_X
*612 mux_top_track_16\.sky130_fd_sc_hd__mux2_1_8_X
*613 mux_top_track_16\.sky130_fd_sc_hd__mux2_1_9_X
*614 mux_top_track_2\.out
*615 mux_top_track_2\.sky130_fd_sc_hd__mux2_1_0_X
*616 mux_top_track_2\.sky130_fd_sc_hd__mux2_1_10_X
*617 mux_top_track_2\.sky130_fd_sc_hd__mux2_1_11_X
*618 mux_top_track_2\.sky130_fd_sc_hd__mux2_1_1_X
*619 mux_top_track_2\.sky130_fd_sc_hd__mux2_1_2_X
*620 mux_top_track_2\.sky130_fd_sc_hd__mux2_1_3_X
*621 mux_top_track_2\.sky130_fd_sc_hd__mux2_1_4_X
*622 mux_top_track_2\.sky130_fd_sc_hd__mux2_1_5_X
*623 mux_top_track_2\.sky130_fd_sc_hd__mux2_1_6_X
*624 mux_top_track_2\.sky130_fd_sc_hd__mux2_1_7_X
*625 mux_top_track_2\.sky130_fd_sc_hd__mux2_1_8_X
*626 mux_top_track_2\.sky130_fd_sc_hd__mux2_1_9_X
*627 mux_top_track_24\.out
*628 mux_top_track_24\.sky130_fd_sc_hd__mux2_1_0_X
*629 mux_top_track_24\.sky130_fd_sc_hd__mux2_1_1_X
*630 mux_top_track_24\.sky130_fd_sc_hd__mux2_1_2_X
*631 mux_top_track_24\.sky130_fd_sc_hd__mux2_1_3_X
*632 mux_top_track_24\.sky130_fd_sc_hd__mux2_1_4_X
*633 mux_top_track_24\.sky130_fd_sc_hd__mux2_1_5_X
*634 mux_top_track_24\.sky130_fd_sc_hd__mux2_1_6_X
*635 mux_top_track_24\.sky130_fd_sc_hd__mux2_1_7_X
*636 mux_top_track_24\.sky130_fd_sc_hd__mux2_1_8_X
*637 mux_top_track_24\.sky130_fd_sc_hd__mux2_1_9_X
*638 mux_top_track_32\.out
*639 mux_top_track_32\.sky130_fd_sc_hd__mux2_1_0_X
*640 mux_top_track_32\.sky130_fd_sc_hd__mux2_1_1_X
*641 mux_top_track_32\.sky130_fd_sc_hd__mux2_1_2_X
*642 mux_top_track_32\.sky130_fd_sc_hd__mux2_1_3_X
*643 mux_top_track_32\.sky130_fd_sc_hd__mux2_1_4_X
*644 mux_top_track_32\.sky130_fd_sc_hd__mux2_1_5_X
*645 mux_top_track_32\.sky130_fd_sc_hd__mux2_1_6_X
*646 mux_top_track_4\.out
*647 mux_top_track_4\.sky130_fd_sc_hd__mux2_1_0_X
*648 mux_top_track_4\.sky130_fd_sc_hd__mux2_1_10_X
*649 mux_top_track_4\.sky130_fd_sc_hd__mux2_1_11_X
*650 mux_top_track_4\.sky130_fd_sc_hd__mux2_1_12_X
*651 mux_top_track_4\.sky130_fd_sc_hd__mux2_1_13_X
*652 mux_top_track_4\.sky130_fd_sc_hd__mux2_1_14_X
*653 mux_top_track_4\.sky130_fd_sc_hd__mux2_1_15_X
*654 mux_top_track_4\.sky130_fd_sc_hd__mux2_1_1_X
*655 mux_top_track_4\.sky130_fd_sc_hd__mux2_1_2_X
*656 mux_top_track_4\.sky130_fd_sc_hd__mux2_1_3_X
*657 mux_top_track_4\.sky130_fd_sc_hd__mux2_1_4_X
*658 mux_top_track_4\.sky130_fd_sc_hd__mux2_1_5_X
*659 mux_top_track_4\.sky130_fd_sc_hd__mux2_1_6_X
*660 mux_top_track_4\.sky130_fd_sc_hd__mux2_1_7_X
*661 mux_top_track_4\.sky130_fd_sc_hd__mux2_1_8_X
*662 mux_top_track_4\.sky130_fd_sc_hd__mux2_1_9_X
*663 mux_top_track_8\.out
*664 mux_top_track_8\.sky130_fd_sc_hd__mux2_1_0_X
*665 mux_top_track_8\.sky130_fd_sc_hd__mux2_1_1_X
*666 mux_top_track_8\.sky130_fd_sc_hd__mux2_1_2_X
*667 mux_top_track_8\.sky130_fd_sc_hd__mux2_1_3_X
*668 mux_top_track_8\.sky130_fd_sc_hd__mux2_1_4_X
*669 mux_top_track_8\.sky130_fd_sc_hd__mux2_1_5_X
*670 mux_top_track_8\.sky130_fd_sc_hd__mux2_1_6_X
*671 mux_top_track_8\.sky130_fd_sc_hd__mux2_1_7_X
*672 mux_top_track_8\.sky130_fd_sc_hd__mux2_1_8_X
*673 mux_top_track_8\.sky130_fd_sc_hd__mux2_1_9_X
*674 net1
*675 net10
*676 net100
*677 net101
*678 net102
*679 net103
*680 net104
*681 net105
*682 net106
*683 net107
*684 net108
*685 net109
*686 net11
*687 net110
*688 net111
*689 net112
*690 net113
*691 net114
*692 net115
*693 net116
*694 net117
*695 net118
*696 net119
*697 net12
*698 net120
*699 net121
*700 net122
*701 net123
*702 net124
*703 net125
*704 net126
*705 net127
*706 net128
*707 net129
*708 net13
*709 net130
*710 net131
*711 net132
*712 net133
*713 net134
*714 net135
*715 net136
*716 net137
*717 net138
*718 net139
*719 net14
*720 net140
*721 net141
*722 net142
*723 net143
*724 net144
*725 net145
*726 net146
*727 net147
*728 net148
*729 net149
*730 net15
*731 net150
*732 net151
*733 net152
*734 net153
*735 net154
*736 net155
*737 net156
*738 net157
*739 net158
*740 net159
*741 net16
*742 net160
*743 net161
*744 net162
*745 net163
*746 net164
*747 net165
*748 net166
*749 net167
*750 net168
*751 net169
*752 net17
*753 net170
*754 net171
*755 net172
*756 net173
*757 net174
*758 net175
*759 net176
*760 net177
*761 net178
*762 net179
*763 net18
*764 net180
*765 net181
*766 net182
*767 net183
*768 net184
*769 net185
*770 net186
*771 net187
*772 net188
*773 net189
*774 net19
*775 net190
*776 net191
*777 net192
*778 net193
*779 net194
*780 net195
*781 net196
*782 net197
*783 net198
*784 net199
*785 net2
*786 net20
*787 net200
*788 net201
*789 net202
*790 net203
*791 net204
*792 net205
*793 net206
*794 net207
*795 net208
*796 net209
*797 net21
*798 net210
*799 net211
*800 net212
*801 net213
*802 net214
*803 net215
*804 net216
*805 net217
*806 net218
*807 net219
*808 net22
*809 net220
*810 net221
*811 net222
*812 net223
*813 net224
*814 net225
*815 net226
*816 net227
*817 net228
*818 net229
*819 net23
*820 net230
*821 net231
*822 net232
*823 net233
*824 net234
*825 net235
*826 net236
*827 net237
*828 net238
*829 net239
*830 net24
*831 net240
*832 net241
*833 net242
*834 net243
*835 net244
*836 net245
*837 net246
*838 net247
*839 net248
*840 net249
*841 net25
*842 net250
*843 net251
*844 net252
*845 net253
*846 net254
*847 net255
*848 net256
*849 net257
*850 net258
*851 net259
*852 net26
*853 net260
*854 net261
*855 net262
*856 net263
*857 net264
*858 net265
*859 net266
*860 net267
*861 net268
*862 net269
*863 net27
*864 net270
*865 net271
*866 net272
*867 net273
*868 net274
*869 net275
*870 net276
*871 net277
*872 net278
*873 net279
*874 net28
*875 net280
*876 net281
*877 net282
*878 net283
*879 net284
*880 net285
*881 net286
*882 net287
*883 net288
*884 net289
*885 net29
*886 net290
*887 net291
*888 net292
*889 net293
*890 net294
*891 net295
*892 net296
*893 net297
*894 net298
*895 net299
*896 net3
*897 net30
*898 net300
*899 net301
*900 net302
*901 net303
*902 net31
*903 net32
*904 net33
*905 net34
*906 net35
*907 net36
*908 net37
*909 net38
*910 net39
*911 net4
*912 net40
*913 net41
*914 net42
*915 net43
*916 net44
*917 net45
*918 net46
*919 net47
*920 net48
*921 net49
*922 net5
*923 net50
*924 net51
*925 net52
*926 net53
*927 net54
*928 net55
*929 net56
*930 net57
*931 net58
*932 net59
*933 net6
*934 net60
*935 net61
*936 net62
*937 net63
*938 net64
*939 net65
*940 net66
*941 net67
*942 net68
*943 net69
*944 net7
*945 net70
*946 net71
*947 net72
*948 net73
*949 net74
*950 net75
*951 net76
*952 net77
*953 net78
*954 net79
*955 net8
*956 net80
*957 net81
*958 net82
*959 net83
*960 net84
*961 net85
*962 net86
*963 net87
*964 net88
*965 net89
*966 net9
*967 net90
*968 net91
*969 net92
*970 net93
*971 net94
*972 net95
*973 net96
*974 net97
*975 net98
*976 net99
*977 ANTENNA__059__A
*978 ANTENNA__061__A
*979 ANTENNA__062__A
*980 ANTENNA__063__A
*981 ANTENNA__065__A
*982 ANTENNA__066__A