*SPEF "ieee 1481-1999"
*DESIGN "sb_1__2_"
*DATE "11:11:11 Fri 11 11, 1111"
*VENDOR "OpenRCX"
*PROGRAM "Parallel Extraction"
*VERSION "1.0"
*DESIGN_FLOW "NAME_SCOPE LOCAL" "PIN_CAP NONE"
*DIVIDER /
*DELIMITER :
*BUS_DELIMITER []
*T_UNIT 1 NS
*C_UNIT 1 PF
*R_UNIT 1 OHM
*L_UNIT 1 HENRY

*NAME_MAP
*1 SC_IN_BOT
*2 SC_OUT_BOT
*5 bottom_left_grid_pin_42_
*6 bottom_left_grid_pin_43_
*7 bottom_left_grid_pin_44_
*8 bottom_left_grid_pin_45_
*9 bottom_left_grid_pin_46_
*10 bottom_left_grid_pin_47_
*11 bottom_left_grid_pin_48_
*12 bottom_left_grid_pin_49_
*13 ccff_head
*14 ccff_tail
*15 chanx_left_in[0]
*16 chanx_left_in[10]
*17 chanx_left_in[11]
*18 chanx_left_in[12]
*19 chanx_left_in[13]
*20 chanx_left_in[14]
*21 chanx_left_in[15]
*22 chanx_left_in[16]
*23 chanx_left_in[17]
*24 chanx_left_in[18]
*25 chanx_left_in[19]
*26 chanx_left_in[1]
*27 chanx_left_in[2]
*28 chanx_left_in[3]
*29 chanx_left_in[4]
*30 chanx_left_in[5]
*31 chanx_left_in[6]
*32 chanx_left_in[7]
*33 chanx_left_in[8]
*34 chanx_left_in[9]
*35 chanx_left_out[0]
*36 chanx_left_out[10]
*37 chanx_left_out[11]
*38 chanx_left_out[12]
*39 chanx_left_out[13]
*40 chanx_left_out[14]
*41 chanx_left_out[15]
*42 chanx_left_out[16]
*43 chanx_left_out[17]
*44 chanx_left_out[18]
*45 chanx_left_out[19]
*46 chanx_left_out[1]
*47 chanx_left_out[2]
*48 chanx_left_out[3]
*49 chanx_left_out[4]
*50 chanx_left_out[5]
*51 chanx_left_out[6]
*52 chanx_left_out[7]
*53 chanx_left_out[8]
*54 chanx_left_out[9]
*55 chanx_right_in[0]
*56 chanx_right_in[10]
*57 chanx_right_in[11]
*58 chanx_right_in[12]
*59 chanx_right_in[13]
*60 chanx_right_in[14]
*61 chanx_right_in[15]
*62 chanx_right_in[16]
*63 chanx_right_in[17]
*64 chanx_right_in[18]
*65 chanx_right_in[19]
*66 chanx_right_in[1]
*67 chanx_right_in[2]
*68 chanx_right_in[3]
*69 chanx_right_in[4]
*70 chanx_right_in[5]
*71 chanx_right_in[6]
*72 chanx_right_in[7]
*73 chanx_right_in[8]
*74 chanx_right_in[9]
*75 chanx_right_out[0]
*76 chanx_right_out[10]
*77 chanx_right_out[11]
*78 chanx_right_out[12]
*79 chanx_right_out[13]
*80 chanx_right_out[14]
*81 chanx_right_out[15]
*82 chanx_right_out[16]
*83 chanx_right_out[17]
*84 chanx_right_out[18]
*85 chanx_right_out[19]
*86 chanx_right_out[1]
*87 chanx_right_out[2]
*88 chanx_right_out[3]
*89 chanx_right_out[4]
*90 chanx_right_out[5]
*91 chanx_right_out[6]
*92 chanx_right_out[7]
*93 chanx_right_out[8]
*94 chanx_right_out[9]
*95 chany_bottom_in[0]
*96 chany_bottom_in[10]
*97 chany_bottom_in[11]
*98 chany_bottom_in[12]
*99 chany_bottom_in[13]
*100 chany_bottom_in[14]
*101 chany_bottom_in[15]
*102 chany_bottom_in[16]
*103 chany_bottom_in[17]
*104 chany_bottom_in[18]
*105 chany_bottom_in[19]
*106 chany_bottom_in[1]
*107 chany_bottom_in[2]
*108 chany_bottom_in[3]
*109 chany_bottom_in[4]
*110 chany_bottom_in[5]
*111 chany_bottom_in[6]
*112 chany_bottom_in[7]
*113 chany_bottom_in[8]
*114 chany_bottom_in[9]
*115 chany_bottom_out[0]
*116 chany_bottom_out[10]
*117 chany_bottom_out[11]
*118 chany_bottom_out[12]
*119 chany_bottom_out[13]
*120 chany_bottom_out[14]
*121 chany_bottom_out[15]
*122 chany_bottom_out[16]
*123 chany_bottom_out[17]
*124 chany_bottom_out[18]
*125 chany_bottom_out[19]
*126 chany_bottom_out[1]
*127 chany_bottom_out[2]
*128 chany_bottom_out[3]
*129 chany_bottom_out[4]
*130 chany_bottom_out[5]
*131 chany_bottom_out[6]
*132 chany_bottom_out[7]
*133 chany_bottom_out[8]
*134 chany_bottom_out[9]
*135 left_bottom_grid_pin_34_
*136 left_bottom_grid_pin_35_
*137 left_bottom_grid_pin_36_
*138 left_bottom_grid_pin_37_
*139 left_bottom_grid_pin_38_
*140 left_bottom_grid_pin_39_
*141 left_bottom_grid_pin_40_
*142 left_bottom_grid_pin_41_
*143 left_top_grid_pin_1_
*144 prog_clk_0_S_in
*145 right_bottom_grid_pin_34_
*146 right_bottom_grid_pin_35_
*147 right_bottom_grid_pin_36_
*148 right_bottom_grid_pin_37_
*149 right_bottom_grid_pin_38_
*150 right_bottom_grid_pin_39_
*151 right_bottom_grid_pin_40_
*152 right_bottom_grid_pin_41_
*153 right_top_grid_pin_1_
*154 mem_bottom_track_1\.ccff_head
*155 mem_bottom_track_1\.ccff_tail
*156 mem_bottom_track_1\.mem_out\[0\]
*157 mem_bottom_track_1\.mem_out\[1\]
*158 mem_bottom_track_1\.prog_clk
*159 mem_bottom_track_11\.ccff_head
*160 mem_bottom_track_11\.ccff_tail
*161 mem_bottom_track_11\.mem_out\[0\]
*162 mem_bottom_track_11\.mem_out\[1\]
*163 mem_bottom_track_13\.ccff_tail
*164 mem_bottom_track_13\.mem_out\[0\]
*165 mem_bottom_track_15\.ccff_tail
*166 mem_bottom_track_15\.mem_out\[0\]
*167 mem_bottom_track_17\.ccff_tail
*168 mem_bottom_track_17\.mem_out\[0\]
*169 mem_bottom_track_19\.ccff_tail
*170 mem_bottom_track_19\.mem_out\[0\]
*171 mem_bottom_track_21\.ccff_tail
*172 mem_bottom_track_21\.mem_out\[0\]
*173 mem_bottom_track_23\.ccff_tail
*174 mem_bottom_track_23\.mem_out\[0\]
*175 mem_bottom_track_25\.ccff_tail
*176 mem_bottom_track_25\.mem_out\[0\]
*177 mem_bottom_track_25\.mem_out\[1\]
*178 mem_bottom_track_27\.ccff_tail
*179 mem_bottom_track_27\.mem_out\[0\]
*180 mem_bottom_track_3\.ccff_tail
*181 mem_bottom_track_3\.mem_out\[0\]
*182 mem_bottom_track_3\.mem_out\[1\]
*183 mem_bottom_track_5\.ccff_tail
*184 mem_bottom_track_5\.mem_out\[0\]
*185 mem_bottom_track_5\.mem_out\[1\]
*186 mem_bottom_track_7\.ccff_tail
*187 mem_bottom_track_7\.mem_out\[0\]
*188 mem_bottom_track_7\.mem_out\[1\]
*189 mem_bottom_track_9\.mem_out\[0\]
*190 mem_bottom_track_9\.mem_out\[1\]
*191 mem_left_track_1\.ccff_tail
*192 mem_left_track_1\.mem_out\[0\]
*193 mem_left_track_1\.mem_out\[1\]
*194 mem_left_track_1\.mem_out\[2\]
*195 mem_left_track_17\.ccff_head
*196 mem_left_track_17\.ccff_tail
*197 mem_left_track_17\.mem_out\[0\]
*198 mem_left_track_17\.mem_out\[1\]
*199 mem_left_track_25\.ccff_tail
*200 mem_left_track_25\.mem_out\[0\]
*201 mem_left_track_25\.mem_out\[1\]
*202 mem_left_track_3\.ccff_tail
*203 mem_left_track_3\.mem_out\[0\]
*204 mem_left_track_3\.mem_out\[1\]
*205 mem_left_track_3\.mem_out\[2\]
*206 mem_left_track_33\.mem_out\[0\]
*207 mem_left_track_33\.mem_out\[1\]
*208 mem_left_track_5\.ccff_tail
*209 mem_left_track_5\.mem_out\[0\]
*210 mem_left_track_5\.mem_out\[1\]
*211 mem_left_track_5\.mem_out\[2\]
*212 mem_left_track_9\.mem_out\[0\]
*213 mem_left_track_9\.mem_out\[1\]
*214 mem_left_track_9\.mem_out\[2\]
*215 mem_right_track_0\.ccff_tail
*216 mem_right_track_0\.mem_out\[0\]
*217 mem_right_track_0\.mem_out\[1\]
*218 mem_right_track_0\.mem_out\[2\]
*219 mem_right_track_16\.ccff_head
*220 mem_right_track_16\.ccff_tail
*221 mem_right_track_16\.mem_out\[0\]
*222 mem_right_track_16\.mem_out\[1\]
*223 mem_right_track_2\.ccff_tail
*224 mem_right_track_2\.mem_out\[0\]
*225 mem_right_track_2\.mem_out\[1\]
*226 mem_right_track_2\.mem_out\[2\]
*227 mem_right_track_24\.ccff_tail
*228 mem_right_track_24\.mem_out\[0\]
*229 mem_right_track_24\.mem_out\[1\]
*230 mem_right_track_32\.mem_out\[0\]
*231 mem_right_track_32\.mem_out\[1\]
*232 mem_right_track_4\.ccff_tail
*233 mem_right_track_4\.mem_out\[0\]
*234 mem_right_track_4\.mem_out\[1\]
*235 mem_right_track_4\.mem_out\[2\]
*236 mem_right_track_8\.mem_out\[0\]
*237 mem_right_track_8\.mem_out\[1\]
*238 mem_right_track_8\.mem_out\[2\]
*239 mux_bottom_track_1\.out
*240 mux_bottom_track_1\.sky130_fd_sc_hd__mux2_1_0_X
*241 mux_bottom_track_1\.sky130_fd_sc_hd__mux2_1_1_X
*242 mux_bottom_track_1\.sky130_fd_sc_hd__mux2_1_2_X
*243 mux_bottom_track_1\.sky130_fd_sc_hd__mux2_1_3_X
*244 mux_bottom_track_1\.sky130_fd_sc_hd__mux2_1_4_X
*245 mux_bottom_track_1\.sky130_fd_sc_hd__mux2_1_5_X
*246 mux_bottom_track_1\.sky130_fd_sc_hd__mux2_1_6_X
*247 mux_bottom_track_11\.out
*248 mux_bottom_track_11\.sky130_fd_sc_hd__mux2_1_0_X
*249 mux_bottom_track_11\.sky130_fd_sc_hd__mux2_1_1_X
*250 mux_bottom_track_11\.sky130_fd_sc_hd__mux2_1_2_X
*251 mux_bottom_track_11\.sky130_fd_sc_hd__mux2_1_3_X
*252 mux_bottom_track_13\.out
*253 mux_bottom_track_13\.sky130_fd_sc_hd__mux2_1_0_X
*254 mux_bottom_track_13\.sky130_fd_sc_hd__mux2_1_1_X
*255 mux_bottom_track_13\.sky130_fd_sc_hd__mux2_1_2_X
*256 mux_bottom_track_15\.out
*257 mux_bottom_track_15\.sky130_fd_sc_hd__mux2_1_0_X
*258 mux_bottom_track_15\.sky130_fd_sc_hd__mux2_1_1_X
*259 mux_bottom_track_15\.sky130_fd_sc_hd__mux2_1_2_X
*260 mux_bottom_track_17\.out
*261 mux_bottom_track_17\.sky130_fd_sc_hd__mux2_1_0_X
*262 mux_bottom_track_17\.sky130_fd_sc_hd__mux2_1_1_X
*263 mux_bottom_track_17\.sky130_fd_sc_hd__mux2_1_2_X
*264 mux_bottom_track_19\.out
*265 mux_bottom_track_19\.sky130_fd_sc_hd__mux2_1_0_X
*266 mux_bottom_track_19\.sky130_fd_sc_hd__mux2_1_1_X
*267 mux_bottom_track_19\.sky130_fd_sc_hd__mux2_1_2_X
*268 mux_bottom_track_21\.out
*269 mux_bottom_track_21\.sky130_fd_sc_hd__mux2_1_0_X
*270 mux_bottom_track_21\.sky130_fd_sc_hd__mux2_1_1_X
*271 mux_bottom_track_21\.sky130_fd_sc_hd__mux2_1_2_X
*272 mux_bottom_track_23\.out
*273 mux_bottom_track_23\.sky130_fd_sc_hd__mux2_1_0_X
*274 mux_bottom_track_23\.sky130_fd_sc_hd__mux2_1_1_X
*275 mux_bottom_track_23\.sky130_fd_sc_hd__mux2_1_2_X
*276 mux_bottom_track_25\.out
*277 mux_bottom_track_25\.sky130_fd_sc_hd__mux2_1_0_X
*278 mux_bottom_track_25\.sky130_fd_sc_hd__mux2_1_1_X
*279 mux_bottom_track_25\.sky130_fd_sc_hd__mux2_1_2_X
*280 mux_bottom_track_25\.sky130_fd_sc_hd__mux2_1_3_X
*281 mux_bottom_track_27\.out
*282 mux_bottom_track_27\.sky130_fd_sc_hd__mux2_1_0_X
*283 mux_bottom_track_27\.sky130_fd_sc_hd__mux2_1_1_X
*284 mux_bottom_track_3\.out
*285 mux_bottom_track_3\.sky130_fd_sc_hd__mux2_1_0_X
*286 mux_bottom_track_3\.sky130_fd_sc_hd__mux2_1_1_X
*287 mux_bottom_track_3\.sky130_fd_sc_hd__mux2_1_2_X
*288 mux_bottom_track_3\.sky130_fd_sc_hd__mux2_1_3_X
*289 mux_bottom_track_3\.sky130_fd_sc_hd__mux2_1_4_X
*290 mux_bottom_track_3\.sky130_fd_sc_hd__mux2_1_5_X
*291 mux_bottom_track_3\.sky130_fd_sc_hd__mux2_1_6_X
*292 mux_bottom_track_5\.out
*293 mux_bottom_track_5\.sky130_fd_sc_hd__mux2_1_0_X
*294 mux_bottom_track_5\.sky130_fd_sc_hd__mux2_1_1_X
*295 mux_bottom_track_5\.sky130_fd_sc_hd__mux2_1_2_X
*296 mux_bottom_track_5\.sky130_fd_sc_hd__mux2_1_3_X
*297 mux_bottom_track_5\.sky130_fd_sc_hd__mux2_1_4_X
*298 mux_bottom_track_5\.sky130_fd_sc_hd__mux2_1_5_X
*299 mux_bottom_track_5\.sky130_fd_sc_hd__mux2_1_6_X
*300 mux_bottom_track_7\.out
*301 mux_bottom_track_7\.sky130_fd_sc_hd__mux2_1_0_X
*302 mux_bottom_track_7\.sky130_fd_sc_hd__mux2_1_1_X
*303 mux_bottom_track_7\.sky130_fd_sc_hd__mux2_1_2_X
*304 mux_bottom_track_7\.sky130_fd_sc_hd__mux2_1_3_X
*305 mux_bottom_track_7\.sky130_fd_sc_hd__mux2_1_4_X
*306 mux_bottom_track_7\.sky130_fd_sc_hd__mux2_1_5_X
*307 mux_bottom_track_7\.sky130_fd_sc_hd__mux2_1_6_X
*308 mux_bottom_track_9\.out
*309 mux_bottom_track_9\.sky130_fd_sc_hd__mux2_1_0_X
*310 mux_bottom_track_9\.sky130_fd_sc_hd__mux2_1_1_X
*311 mux_bottom_track_9\.sky130_fd_sc_hd__mux2_1_2_X
*312 mux_bottom_track_9\.sky130_fd_sc_hd__mux2_1_3_X
*313 mux_left_track_1\.out
*314 mux_left_track_1\.sky130_fd_sc_hd__mux2_1_0_X
*315 mux_left_track_1\.sky130_fd_sc_hd__mux2_1_1_X
*316 mux_left_track_1\.sky130_fd_sc_hd__mux2_1_2_X
*317 mux_left_track_1\.sky130_fd_sc_hd__mux2_1_3_X
*318 mux_left_track_1\.sky130_fd_sc_hd__mux2_1_4_X
*319 mux_left_track_1\.sky130_fd_sc_hd__mux2_1_5_X
*320 mux_left_track_1\.sky130_fd_sc_hd__mux2_1_6_X
*321 mux_left_track_1\.sky130_fd_sc_hd__mux2_1_7_X
*322 mux_left_track_1\.sky130_fd_sc_hd__mux2_1_8_X
*323 mux_left_track_17\.out
*324 mux_left_track_17\.sky130_fd_sc_hd__mux2_1_0_X
*325 mux_left_track_17\.sky130_fd_sc_hd__mux2_1_1_X
*326 mux_left_track_17\.sky130_fd_sc_hd__mux2_1_2_X
*327 mux_left_track_17\.sky130_fd_sc_hd__mux2_1_3_X
*328 mux_left_track_17\.sky130_fd_sc_hd__mux2_1_4_X
*329 mux_left_track_17\.sky130_fd_sc_hd__mux2_1_5_X
*330 mux_left_track_17\.sky130_fd_sc_hd__mux2_1_6_X
*331 mux_left_track_25\.out
*332 mux_left_track_25\.sky130_fd_sc_hd__mux2_1_0_X
*333 mux_left_track_25\.sky130_fd_sc_hd__mux2_1_1_X
*334 mux_left_track_25\.sky130_fd_sc_hd__mux2_1_2_X
*335 mux_left_track_25\.sky130_fd_sc_hd__mux2_1_3_X
*336 mux_left_track_25\.sky130_fd_sc_hd__mux2_1_4_X
*337 mux_left_track_25\.sky130_fd_sc_hd__mux2_1_5_X
*338 mux_left_track_25\.sky130_fd_sc_hd__mux2_1_6_X
*339 mux_left_track_3\.out
*340 mux_left_track_3\.sky130_fd_sc_hd__mux2_1_0_X
*341 mux_left_track_3\.sky130_fd_sc_hd__mux2_1_1_X
*342 mux_left_track_3\.sky130_fd_sc_hd__mux2_1_2_X
*343 mux_left_track_3\.sky130_fd_sc_hd__mux2_1_3_X
*344 mux_left_track_3\.sky130_fd_sc_hd__mux2_1_4_X
*345 mux_left_track_3\.sky130_fd_sc_hd__mux2_1_5_X
*346 mux_left_track_3\.sky130_fd_sc_hd__mux2_1_6_X
*347 mux_left_track_3\.sky130_fd_sc_hd__mux2_1_7_X
*348 mux_left_track_3\.sky130_fd_sc_hd__mux2_1_8_X
*349 mux_left_track_33\.out
*350 mux_left_track_33\.sky130_fd_sc_hd__mux2_1_0_X
*351 mux_left_track_33\.sky130_fd_sc_hd__mux2_1_1_X
*352 mux_left_track_33\.sky130_fd_sc_hd__mux2_1_2_X
*353 mux_left_track_33\.sky130_fd_sc_hd__mux2_1_3_X
*354 mux_left_track_33\.sky130_fd_sc_hd__mux2_1_4_X
*355 mux_left_track_33\.sky130_fd_sc_hd__mux2_1_5_X
*356 mux_left_track_5\.out
*357 mux_left_track_5\.sky130_fd_sc_hd__mux2_1_0_X
*358 mux_left_track_5\.sky130_fd_sc_hd__mux2_1_10_X
*359 mux_left_track_5\.sky130_fd_sc_hd__mux2_1_11_X
*360 mux_left_track_5\.sky130_fd_sc_hd__mux2_1_12_X
*361 mux_left_track_5\.sky130_fd_sc_hd__mux2_1_13_X
*362 mux_left_track_5\.sky130_fd_sc_hd__mux2_1_1_X
*363 mux_left_track_5\.sky130_fd_sc_hd__mux2_1_2_X
*364 mux_left_track_5\.sky130_fd_sc_hd__mux2_1_3_X
*365 mux_left_track_5\.sky130_fd_sc_hd__mux2_1_4_X
*366 mux_left_track_5\.sky130_fd_sc_hd__mux2_1_5_X
*367 mux_left_track_5\.sky130_fd_sc_hd__mux2_1_6_X
*368 mux_left_track_5\.sky130_fd_sc_hd__mux2_1_7_X
*369 mux_left_track_5\.sky130_fd_sc_hd__mux2_1_8_X
*370 mux_left_track_5\.sky130_fd_sc_hd__mux2_1_9_X
*371 mux_left_track_9\.out
*372 mux_left_track_9\.sky130_fd_sc_hd__mux2_1_0_X
*373 mux_left_track_9\.sky130_fd_sc_hd__mux2_1_1_X
*374 mux_left_track_9\.sky130_fd_sc_hd__mux2_1_2_X
*375 mux_left_track_9\.sky130_fd_sc_hd__mux2_1_3_X
*376 mux_left_track_9\.sky130_fd_sc_hd__mux2_1_4_X
*377 mux_left_track_9\.sky130_fd_sc_hd__mux2_1_5_X
*378 mux_left_track_9\.sky130_fd_sc_hd__mux2_1_6_X
*379 mux_left_track_9\.sky130_fd_sc_hd__mux2_1_7_X
*380 mux_right_track_0\.out
*381 mux_right_track_0\.sky130_fd_sc_hd__mux2_1_0_X
*382 mux_right_track_0\.sky130_fd_sc_hd__mux2_1_1_X
*383 mux_right_track_0\.sky130_fd_sc_hd__mux2_1_2_X
*384 mux_right_track_0\.sky130_fd_sc_hd__mux2_1_3_X
*385 mux_right_track_0\.sky130_fd_sc_hd__mux2_1_4_X
*386 mux_right_track_0\.sky130_fd_sc_hd__mux2_1_5_X
*387 mux_right_track_0\.sky130_fd_sc_hd__mux2_1_6_X
*388 mux_right_track_0\.sky130_fd_sc_hd__mux2_1_7_X
*389 mux_right_track_0\.sky130_fd_sc_hd__mux2_1_8_X
*390 mux_right_track_0\.sky130_fd_sc_hd__mux2_1_9_X
*391 mux_right_track_16\.out
*392 mux_right_track_16\.sky130_fd_sc_hd__mux2_1_0_X
*393 mux_right_track_16\.sky130_fd_sc_hd__mux2_1_1_X
*394 mux_right_track_16\.sky130_fd_sc_hd__mux2_1_2_X
*395 mux_right_track_16\.sky130_fd_sc_hd__mux2_1_3_X
*396 mux_right_track_16\.sky130_fd_sc_hd__mux2_1_4_X
*397 mux_right_track_16\.sky130_fd_sc_hd__mux2_1_5_X
*398 mux_right_track_16\.sky130_fd_sc_hd__mux2_1_6_X
*399 mux_right_track_2\.out
*400 mux_right_track_2\.sky130_fd_sc_hd__mux2_1_0_X
*401 mux_right_track_2\.sky130_fd_sc_hd__mux2_1_1_X
*402 mux_right_track_2\.sky130_fd_sc_hd__mux2_1_2_X
*403 mux_right_track_2\.sky130_fd_sc_hd__mux2_1_3_X
*404 mux_right_track_2\.sky130_fd_sc_hd__mux2_1_4_X
*405 mux_right_track_2\.sky130_fd_sc_hd__mux2_1_5_X
*406 mux_right_track_2\.sky130_fd_sc_hd__mux2_1_6_X
*407 mux_right_track_2\.sky130_fd_sc_hd__mux2_1_7_X
*408 mux_right_track_2\.sky130_fd_sc_hd__mux2_1_8_X
*409 mux_right_track_24\.out
*410 mux_right_track_24\.sky130_fd_sc_hd__mux2_1_0_X
*411 mux_right_track_24\.sky130_fd_sc_hd__mux2_1_1_X
*412 mux_right_track_24\.sky130_fd_sc_hd__mux2_1_2_X
*413 mux_right_track_24\.sky130_fd_sc_hd__mux2_1_3_X
*414 mux_right_track_24\.sky130_fd_sc_hd__mux2_1_4_X
*415 mux_right_track_24\.sky130_fd_sc_hd__mux2_1_5_X
*416 mux_right_track_24\.sky130_fd_sc_hd__mux2_1_6_X
*417 mux_right_track_32\.out
*418 mux_right_track_32\.sky130_fd_sc_hd__mux2_1_0_X
*419 mux_right_track_32\.sky130_fd_sc_hd__mux2_1_1_X
*420 mux_right_track_32\.sky130_fd_sc_hd__mux2_1_2_X
*421 mux_right_track_32\.sky130_fd_sc_hd__mux2_1_3_X
*422 mux_right_track_32\.sky130_fd_sc_hd__mux2_1_4_X
*423 mux_right_track_4\.out
*424 mux_right_track_4\.sky130_fd_sc_hd__mux2_1_0_X
*425 mux_right_track_4\.sky130_fd_sc_hd__mux2_1_10_X
*426 mux_right_track_4\.sky130_fd_sc_hd__mux2_1_11_X
*427 mux_right_track_4\.sky130_fd_sc_hd__mux2_1_12_X
*428 mux_right_track_4\.sky130_fd_sc_hd__mux2_1_13_X
*429 mux_right_track_4\.sky130_fd_sc_hd__mux2_1_1_X
*430 mux_right_track_4\.sky130_fd_sc_hd__mux2_1_2_X
*431 mux_right_track_4\.sky130_fd_sc_hd__mux2_1_3_X
*432 mux_right_track_4\.sky130_fd_sc_hd__mux2_1_4_X
*433 mux_right_track_4\.sky130_fd_sc_hd__mux2_1_5_X
*434 mux_right_track_4\.sky130_fd_sc_hd__mux2_1_6_X
*435 mux_right_track_4\.sky130_fd_sc_hd__mux2_1_7_X
*436 mux_right_track_4\.sky130_fd_sc_hd__mux2_1_8_X
*437 mux_right_track_4\.sky130_fd_sc_hd__mux2_1_9_X
*438 mux_right_track_8\.out
*439 mux_right_track_8\.sky130_fd_sc_hd__mux2_1_0_X
*440 mux_right_track_8\.sky130_fd_sc_hd__mux2_1_1_X
*441 mux_right_track_8\.sky130_fd_sc_hd__mux2_1_2_X
*442 mux_right_track_8\.sky130_fd_sc_hd__mux2_1_3_X
*443 mux_right_track_8\.sky130_fd_sc_hd__mux2_1_4_X
*444 mux_right_track_8\.sky130_fd_sc_hd__mux2_1_5_X
*445 mux_right_track_8\.sky130_fd_sc_hd__mux2_1_6_X
*446 mux_right_track_8\.sky130_fd_sc_hd__mux2_1_7_X
*447 net1
*448 net10
*449 net100
*450 net101
*451 net102
*452 net103
*453 net104
*454 net105
*455 net106
*456 net107
*457 net108
*458 net109
*459 net11
*460 net110
*461 net111
*462 net112
*463 net113
*464 net114
*465 net115
*466 net116
*467 net117
*468 net118
*469 net119
*470 net12
*471 net120
*472 net121
*473 net122
*474 net123
*475 net124
*476 net125
*477 net126
*478 net127
*479 net128
*480 net129
*481 net13
*482 net130
*483 net131
*484 net132
*485 net133
*486 net134
*487 net135
*488 net136
*489 net137
*490 net138
*491 net139
*492 net14
*493 net140
*494 net141
*495 net142
*496 net143
*497 net144
*498 net145
*499 net146
*500 net147
*501 net148
*502 net149
*503 net15
*504 net150
*505 net151
*506 net152
*507 net153
*508 net154
*509 net155
*510 net156
*511 net157
*512 net158
*513 net159
*514 net16
*515 net160
*516 net161
*517 net162
*518 net163
*519 net164
*520 net165
*521 net166
*522 net167
*523 net168
*524 net169
*525 net17
*526 net170
*527 net171
*528 net172
*529 net173
*530 net174
*531 net175
*532 net176
*533 net177
*534 net178
*535 net179
*536 net18
*537 net180
*538 net181
*539 net182
*540 net19
*541 net2
*542 net20
*543 net21
*544 net22
*545 net23
*546 net24
*547 net25
*548 net26
*549 net27
*550 net28
*551 net29
*552 net3
*553 net30
*554 net31
*555 net32
*556 net33
*557 net34
*558 net35
*559 net36
*560 net37
*561 net38
*562 net39
*563 net4
*564 net40
*565 net41
*566 net42
*567 net43
*568 net44
*569 net45
*570 net46
*571 net47
*572 net48
*573 net49
*574 net5
*575 net50
*576 net51
*577 net52
*578 net53
*579 net54
*580 net55
*581 net56
*582 net57
*583 net58
*584 net59
*585 net6
*586 net60
*587 net61
*588 net62
*589 net63
*590 net64
*591 net65
*592 net66
*593 net67
*594 net68
*595 net69
*596 net7
*597 net70
*598 net71
*599 net72
*600 net73
*601 net74
*602 net75
*603 net76
*604 net77
*605 net78
*606 net79
*607 net8
*608 net80
*609 net81
*610 net82
*611 net83
*612 net84
*613 net85
*614 net86
*615 net87
*616 net88
*617 net89
*618 net9
*619 net90
*620 net91
*621 net92
*622 net93
*623 net94
*624 net95
*625 net96
*626 net97
*627 net98
*628 net99
*629 ANTENNA__060__A
*630 ANTENNA__062__A
*631 ANTENNA__063__A
*632 ANTENNA__064__A
*633 ANTENNA__066__A
*634 ANTENNA__067__A
*635 ANTENNA__068__A
*636 ANTENNA__070__A
*637 ANTENNA__071__A
*638 ANTENNA__072__A
*639 ANTENNA__074__A
*640 ANTENNA__075__A
*641 ANTENNA__076__A
*642 ANTENNA__080__A
*643 ANTENNA__082__A
*644 ANTENNA__083__A
*645 ANTENNA__084__A
*646 ANTENNA__086__A
*647 ANTENNA__087__A
*648 ANTENNA__088__A
*649 ANTENNA__090__A
*650 ANTENNA__091__A
*651 ANTENNA__092__A
*652 ANTENNA__094__A
*653 ANTENNA__095__A
*654 ANTENNA__096__A
*655 ANTENNA_input10_A
*656 ANTENNA_input11_A
*657 ANTENNA_input12_A
*658 ANTENNA_input13_A
*659 ANTENNA_input14_A
*660 ANTENNA_input15_A
*661 ANTENNA_input16_A
*662 ANTENNA_input17_A
*663 ANTENNA_input18_A
*664 ANTENNA_input19_A
*665 ANTENNA_input1_A
*666 ANTENNA_input20_A
*667 ANTENNA_input21_A
*668 ANTENNA_input22_A
*669 ANTENNA_input23_A
*670 ANTENNA_input24_A
*671 ANTENNA_input25_A
*672 ANTENNA_input26_A
*673 ANTENNA_input27_A
*674 ANTENNA_input28_A
*675 ANTENNA_input29_A
*676 ANTENNA_input2_A
*677 ANTENNA_input30_A
*678 ANTENNA_input31_A
*679 ANTENNA_input32_A
*680 ANTENNA_input33_A
*681 ANTENNA_input34_A
*682 ANTENNA_input35_A
*683 ANTENNA_input36_A
*684 ANTENNA_input37_A
*685 ANTENNA_input38_A
*686 ANTENNA_input39_A
*687 ANTENNA_input3_A
*688 ANTENNA_input40_A
*689 ANTENNA_input41_A
*690 ANTENNA_input42_A
*691 ANTENNA_input43_A
*692 ANTENNA_input44_A
*693 ANTENNA_input45_A
*694 ANTENNA_input46_A
*695 ANTENNA_input47_A
*696 ANTENNA_input48_A
*697 ANTENNA_input49_A
*698 ANTENNA_input4_A
*699 ANTENNA_input50_A
*700 ANTENNA_input51_A
*701 ANTENNA_input52_A
*702 ANTENNA_input53_A
*703 ANTENNA_input54_A
*704 ANTENNA_input55_A
*705 ANTENNA_input56_A
*706 ANTENNA_input57_A
*707 ANTENNA_input58_A
*708 ANTENNA_input59_A
*709 ANTENNA_input5_A
*710 ANTENNA_input60_A
*711 ANTENNA_input61_A
*712 ANTENNA_input62_A
*713 ANTENNA_input63_A
*714 ANTENNA_input64_A
*715 ANTENNA_input65_A
*716 ANTENNA_input66_A
*717 ANTENNA_input67_A
*718 ANTENNA_input68_A
*719 ANTENNA_input69_A
*720 ANTENNA_input6_A
*721 ANTENNA_input70_A
*722 ANTENNA_input71_A
*723 ANTENNA_input72_A
*724 ANTENNA_input73_A
*725 ANTENNA_input74_A
*726 ANTENNA_input75_A
*727 ANTENNA_input76_A
*728 ANTENNA_input77_A
*729 ANTENNA_input78_A
*730 ANTENNA_input79_A
*731 ANTENNA_input7_A
*732 ANTENNA_input80_A
*733 ANTENNA_input81_A
*734 ANTENNA_input82_A
*735 ANTENNA_input83_A
*736 ANTENNA_input84_A
*737 ANTENNA_input85_A
*738 ANTENNA_input86_A
*739 ANTENNA_input87_A
*740 ANTENNA_input88_A
*741 ANTENNA_input8_A
*742 ANTENNA_input9_A
*743 ANTENNA_mem_bottom_track_1\.sky130_fd_sc_hd__dfxtp_1_0__CLK
*744 ANTENNA_mem_bottom_track_1\.sky130_fd_sc_hd__dfxtp_1_1__CLK
*745 ANTENNA_mem_bottom_track_1\.sky130_fd_sc_hd__dfxtp_1_1__D
*746 ANTENNA_mem_bottom_track_1\.sky130_fd_sc_hd__dfxtp_1_2__CLK
*747 ANTENNA_mem_bottom_track_11\.sky130_fd_sc_hd__dfxtp_1_0__CLK
*748 ANTENNA_mem_bottom_track_11\.sky130_fd_sc_hd__dfxtp_1_1__CLK
*749 ANTENNA_mem_bottom_track_11\.sky130_fd_sc_hd__dfxtp_1_2__CLK
*750 ANTENNA_mem_bottom_track_13\.sky130_fd_sc_hd__dfxtp_1_0__CLK
*751 ANTENNA_mem_bottom_track_13\.sky130_fd_sc_hd__dfxtp_1_1__CLK
*752 ANTENNA_mem_bottom_track_15\.sky130_fd_sc_hd__dfxtp_1_0__CLK
*753 ANTENNA_mem_bottom_track_15\.sky130_fd_sc_hd__dfxtp_1_1__CLK
*754 ANTENNA_mem_bottom_track_17\.sky130_fd_sc_hd__dfxtp_1_0__CLK
*755 ANTENNA_mem_bottom_track_17\.sky130_fd_sc_hd__dfxtp_1_1__CLK
*756 ANTENNA_mem_bottom_track_19\.sky130_fd_sc_hd__dfxtp_1_0__CLK
*757 ANTENNA_mem_bottom_track_19\.sky130_fd_sc_hd__dfxtp_1_1__CLK
*758 ANTENNA_mem_bottom_track_21\.sky130_fd_sc_hd__dfxtp_1_0__CLK
*759 ANTENNA_mem_bottom_track_21\.sky130_fd_sc_hd__dfxtp_1_1__CLK
*760 ANTENNA_mem_bottom_track_23\.sky130_fd_sc_hd__dfxtp_1_0__CLK
*761 ANTENNA_mem_bottom_track_23\.sky130_fd_sc_hd__dfxtp_1_1__CLK
*762 ANTENNA_mem_bottom_track_25\.sky130_fd_sc_hd__dfxtp_1_0__CLK
*763 ANTENNA_mem_bottom_track_25\.sky130_fd_sc_hd__dfxtp_1_1__CLK
*764 ANTENNA_mem_bottom_track_25\.sky130_fd_sc_hd__dfxtp_1_2__CLK
*765 ANTENNA_mem_bottom_track_27\.sky130_fd_sc_hd__dfxtp_1_0__CLK
*766 ANTENNA_mem_bottom_track_27\.sky130_fd_sc_hd__dfxtp_1_1__CLK
*767 ANTENNA_mem_bottom_track_3\.sky130_fd_sc_hd__dfxtp_1_0__CLK
*768 ANTENNA_mem_bottom_track_3\.sky130_fd_sc_hd__dfxtp_1_1__CLK
*769 ANTENNA_mem_bottom_track_3\.sky130_fd_sc_hd__dfxtp_1_2__CLK
*770 ANTENNA_mem_bottom_track_5\.sky130_fd_sc_hd__dfxtp_1_0__CLK
*771 ANTENNA_mem_bottom_track_5\.sky130_fd_sc_hd__dfxtp_1_1__CLK
*772 ANTENNA_mem_bottom_track_5\.sky130_fd_sc_hd__dfxtp_1_2__CLK
*773 ANTENNA_mem_bottom_track_7\.sky130_fd_sc_hd__dfxtp_1_0__CLK
*774 ANTENNA_mem_bottom_track_7\.sky130_fd_sc_hd__dfxtp_1_1__CLK
*775 ANTENNA_mem_bottom_track_7\.sky130_fd_sc_hd__dfxtp_1_2__CLK
*776 ANTENNA_mem_bottom_track_9\.sky130_fd_sc_hd__dfxtp_1_0__CLK
*777 ANTENNA_mem_bottom_track_9\.sky130_fd_sc_hd__dfxtp_1_1__CLK
*778 ANTENNA_mem_bottom_track_9\.sky130_fd_sc_hd__dfxtp_1_2__CLK
*779 ANTENNA_mem_left_track_1\.sky130_fd_sc_hd__dfxtp_1_0__CLK
*780 ANTENNA_mem_left_track_1\.sky130_fd_sc_hd__dfxtp_1_1__CLK
*781 ANTENNA_mem_left_track_1\.sky130_fd_sc_hd__dfxtp_1_1__D
*782 ANTENNA_mem_left_track_1\.sky130_fd_sc_hd__dfxtp_1_2__CLK
*783 ANTENNA_mem_left_track_1\.sky130_fd_sc_hd__dfxtp_1_2__D
*784 ANTENNA_mem_left_track_1\.sky130_fd_sc_hd__dfxtp_1_3__CLK
*785 ANTENNA_mem_left_track_1\.sky130_fd_sc_hd__dfxtp_1_3__D
*786 ANTENNA_mem_left_track_17\.sky130_fd_sc_hd__dfxtp_1_0__CLK
*787 ANTENNA_mem_left_track_17\.sky130_fd_sc_hd__dfxtp_1_1__CLK
*788 ANTENNA_mem_left_track_17\.sky130_fd_sc_hd__dfxtp_1_1__D
*789 ANTENNA_mem_left_track_17\.sky130_fd_sc_hd__dfxtp_1_2__CLK
*790 ANTENNA_mem_left_track_17\.sky130_fd_sc_hd__dfxtp_1_2__D
*791 ANTENNA_mem_left_track_25\.sky130_fd_sc_hd__dfxtp_1_0__CLK
*792 ANTENNA_mem_left_track_25\.sky130_fd_sc_hd__dfxtp_1_1__CLK
*793 ANTENNA_mem_left_track_25\.sky130_fd_sc_hd__dfxtp_1_2__CLK
*794 ANTENNA_mem_left_track_3\.sky130_fd_sc_hd__dfxtp_1_0__CLK
*795 ANTENNA_mem_left_track_3\.sky130_fd_sc_hd__dfxtp_1_0__D
*796 ANTENNA_mem_left_track_3\.sky130_fd_sc_hd__dfxtp_1_1__CLK
*797 ANTENNA_mem_left_track_3\.sky130_fd_sc_hd__dfxtp_1_2__CLK
*798 ANTENNA_mem_left_track_3\.sky130_fd_sc_hd__dfxtp_1_3__CLK
*799 ANTENNA_mem_left_track_33\.sky130_fd_sc_hd__dfxtp_1_0__CLK
*800 ANTENNA_mem_left_track_33\.sky130_fd_sc_hd__dfxtp_1_1__CLK
*801 ANTENNA_mem_left_track_33\.sky130_fd_sc_hd__dfxtp_1_1__D
*802 ANTENNA_mem_left_track_33\.sky130_fd_sc_hd__dfxtp_1_2__CLK
*803 ANTENNA_mem_left_track_33\.sky130_fd_sc_hd__dfxtp_1_2__D
*804 ANTENNA_mem_left_track_5\.sky130_fd_sc_hd__dfxtp_1_0__CLK
*805 ANTENNA_mem_left_track_5\.sky130_fd_sc_hd__dfxtp_1_1__CLK
*806 ANTENNA_mem_left_track_5\.sky130_fd_sc_hd__dfxtp_1_2__CLK
*807 ANTENNA_mem_left_track_5\.sky130_fd_sc_hd__dfxtp_1_2__D
*808 ANTENNA_mem_left_track_5\.sky130_fd_sc_hd__dfxtp_1_3__CLK
*809 ANTENNA_mem_left_track_5\.sky130_fd_sc_hd__dfxtp_1_3__D
*810 ANTENNA_mem_left_track_9\.sky130_fd_sc_hd__dfxtp_1_0__CLK
*811 ANTENNA_mem_left_track_9\.sky130_fd_sc_hd__dfxtp_1_1__CLK
*812 ANTENNA_mem_left_track_9\.sky130_fd_sc_hd__dfxtp_1_2__CLK
*813 ANTENNA_mem_left_track_9\.sky130_fd_sc_hd__dfxtp_1_2__D
*814 ANTENNA_mem_left_track_9\.sky130_fd_sc_hd__dfxtp_1_3__CLK
*815 ANTENNA_mem_right_track_0\.delay_buf_A
*816 ANTENNA_mem_right_track_0\.sky130_fd_sc_hd__dfxtp_1_0__CLK
*817 ANTENNA_mem_right_track_0\.sky130_fd_sc_hd__dfxtp_1_0__D
*818 ANTENNA_mem_right_track_0\.sky130_fd_sc_hd__dfxtp_1_1__CLK
*819 ANTENNA_mem_right_track_0\.sky130_fd_sc_hd__dfxtp_1_2__CLK
*820 ANTENNA_mem_right_track_0\.sky130_fd_sc_hd__dfxtp_1_2__D
*821 ANTENNA_mem_right_track_0\.sky130_fd_sc_hd__dfxtp_1_3__CLK
*822 ANTENNA_mem_right_track_16\.sky130_fd_sc_hd__dfxtp_1_0__CLK
*823 ANTENNA_mem_right_track_16\.sky130_fd_sc_hd__dfxtp_1_1__CLK
*824 ANTENNA_mem_right_track_16\.sky130_fd_sc_hd__dfxtp_1_1__D
*825 ANTENNA_mem_right_track_16\.sky130_fd_sc_hd__dfxtp_1_2__CLK
*826 ANTENNA_mem_right_track_16\.sky130_fd_sc_hd__dfxtp_1_2__D
*827 ANTENNA_mem_right_track_2\.sky130_fd_sc_hd__dfxtp_1_0__CLK
*828 ANTENNA_mem_right_track_2\.sky130_fd_sc_hd__dfxtp_1_1__CLK
*829 ANTENNA_mem_right_track_2\.sky130_fd_sc_hd__dfxtp_1_2__CLK
*830 ANTENNA_mem_right_track_2\.sky130_fd_sc_hd__dfxtp_1_2__D
*831 ANTENNA_mem_right_track_2\.sky130_fd_sc_hd__dfxtp_1_3__CLK
*832 ANTENNA_mem_right_track_24\.sky130_fd_sc_hd__dfxtp_1_0__CLK
*833 ANTENNA_mem_right_track_24\.sky130_fd_sc_hd__dfxtp_1_1__CLK
*834 ANTENNA_mem_right_track_24\.sky130_fd_sc_hd__dfxtp_1_1__D
*835 ANTENNA_mem_right_track_24\.sky130_fd_sc_hd__dfxtp_1_2__CLK
*836 ANTENNA_mem_right_track_24\.sky130_fd_sc_hd__dfxtp_1_2__D
*837 ANTENNA_mem_right_track_32\.sky130_fd_sc_hd__dfxtp_1_0__CLK
*838 ANTENNA_mem_right_track_32\.sky130_fd_sc_hd__dfxtp_1_1__CLK
*839 ANTENNA_mem_right_track_32\.sky130_fd_sc_hd__dfxtp_1_2__CLK
*840 ANTENNA_mem_right_track_32\.sky130_fd_sc_hd__dfxtp_1_2__D
*841 ANTENNA_mem_right_track_4\.sky130_fd_sc_hd__dfxtp_1_0__CLK
*842 ANTENNA_mem_right_track_4\.sky130_fd_sc_hd__dfxtp_1_1__CLK
*843 ANTENNA_mem_right_track_4\.sky130_fd_sc_hd__dfxtp_1_2__CLK
*844 ANTENNA_mem_right_track_4\.sky130_fd_sc_hd__dfxtp_1_3__CLK
*845 ANTENNA_mem_right_track_8\.sky130_fd_sc_hd__dfxtp_1_0__CLK
*846 ANTENNA_mem_right_track_8\.sky130_fd_sc_hd__dfxtp_1_1__CLK
*847 ANTENNA_mem_right_track_8\.sky130_fd_sc_hd__dfxtp_1_2__CLK
*848 ANTENNA_mem_right_track_8\.sky130_fd_sc_hd__dfxtp_1_2__D
*849 ANTENNA_mem_right_track_8\.sky130_fd_sc_hd__dfxtp_1_3__CLK
*850 ANTENNA_mux_bottom_track_1\.mux_l1_in_0__A0
*851 ANTENNA_mux_bottom_track_1\.mux_l1_in_0__A1
*852 ANTENNA_mux_bottom_track_1\.mux_l1_in_0__S
*853 ANTENNA_mux_bottom_track_1\.mux_l1_in_1__A0
*854 ANTENNA_mux_bottom_track_1\.mux_l1_in_1__S
*855 ANTENNA_mux_bottom_track_1\.mux_l1_in_2__A1
*856 ANTENNA_mux_bottom_track_1\.mux_l1_in_2__S
*857 ANTENNA_mux_bottom_track_1\.mux_l1_in_3__A1
*858 ANTENNA_mux_bottom_track_1\.mux_l1_in_3__S
*859 ANTENNA_mux_bottom_track_11\.mux_l1_in_0__A0
*860 ANTENNA_mux_bottom_track_11\.mux_l1_in_0__A1
*861 ANTENNA_mux_bottom_track_11\.mux_l2_in_0__A0
*862 ANTENNA_mux_bottom_track_13\.mux_l1_in_0__A1
*863 ANTENNA_mux_bottom_track_13\.mux_l1_in_1__A1
*864 ANTENNA_mux_bottom_track_15\.mux_l1_in_0__A1
*865 ANTENNA_mux_bottom_track_15\.mux_l1_in_1__A1
*866 ANTENNA_mux_bottom_track_17\.mux_l1_in_0__A0
*867 ANTENNA_mux_bottom_track_17\.mux_l1_in_0__A1
*868 ANTENNA_mux_bottom_track_17\.mux_l1_in_1__A1
*869 ANTENNA_mux_bottom_track_19\.mux_l1_in_0__A0
*870 ANTENNA_mux_bottom_track_19\.mux_l1_in_0__A1
*871 ANTENNA_mux_bottom_track_19\.mux_l1_in_1__A1
*872 ANTENNA_mux_bottom_track_21\.mux_l1_in_0__A0
*873 ANTENNA_mux_bottom_track_21\.mux_l1_in_0__A1
*874 ANTENNA_mux_bottom_track_21\.mux_l1_in_1__A1