*SPEF "ieee 1481-1999"
*DESIGN "sb_1__0_"
*DATE "11:11:11 Fri 11 11, 1111"
*VENDOR "OpenRCX"
*PROGRAM "Parallel Extraction"
*VERSION "1.0"
*DESIGN_FLOW "NAME_SCOPE LOCAL" "PIN_CAP NONE"
*DIVIDER /
*DELIMITER :
*BUS_DELIMITER []
*T_UNIT 1 NS
*C_UNIT 1 PF
*R_UNIT 1 OHM
*L_UNIT 1 HENRY

*NAME_MAP
*1 SC_IN_TOP
*2 SC_OUT_TOP
*3 Test_en_N_out
*4 Test_en_S_in
*7 ccff_head
*8 ccff_tail
*9 chanx_left_in[0]
*10 chanx_left_in[10]
*11 chanx_left_in[11]
*12 chanx_left_in[12]
*13 chanx_left_in[13]
*14 chanx_left_in[14]
*15 chanx_left_in[15]
*16 chanx_left_in[16]
*17 chanx_left_in[17]
*18 chanx_left_in[18]
*19 chanx_left_in[19]
*20 chanx_left_in[1]
*21 chanx_left_in[2]
*22 chanx_left_in[3]
*23 chanx_left_in[4]
*24 chanx_left_in[5]
*25 chanx_left_in[6]
*26 chanx_left_in[7]
*27 chanx_left_in[8]
*28 chanx_left_in[9]
*29 chanx_left_out[0]
*30 chanx_left_out[10]
*31 chanx_left_out[11]
*32 chanx_left_out[12]
*33 chanx_left_out[13]
*34 chanx_left_out[14]
*35 chanx_left_out[15]
*36 chanx_left_out[16]
*37 chanx_left_out[17]
*38 chanx_left_out[18]
*39 chanx_left_out[19]
*40 chanx_left_out[1]
*41 chanx_left_out[2]
*42 chanx_left_out[3]
*43 chanx_left_out[4]
*44 chanx_left_out[5]
*45 chanx_left_out[6]
*46 chanx_left_out[7]
*47 chanx_left_out[8]
*48 chanx_left_out[9]
*49 chanx_right_in[0]
*50 chanx_right_in[10]
*51 chanx_right_in[11]
*52 chanx_right_in[12]
*53 chanx_right_in[13]
*54 chanx_right_in[14]
*55 chanx_right_in[15]
*56 chanx_right_in[16]
*57 chanx_right_in[17]
*58 chanx_right_in[18]
*59 chanx_right_in[19]
*60 chanx_right_in[1]
*61 chanx_right_in[2]
*62 chanx_right_in[3]
*63 chanx_right_in[4]
*64 chanx_right_in[5]
*65 chanx_right_in[6]
*66 chanx_right_in[7]
*67 chanx_right_in[8]
*68 chanx_right_in[9]
*69 chanx_right_out[0]
*70 chanx_right_out[10]
*71 chanx_right_out[11]
*72 chanx_right_out[12]
*73 chanx_right_out[13]
*74 chanx_right_out[14]
*75 chanx_right_out[15]
*76 chanx_right_out[16]
*77 chanx_right_out[17]
*78 chanx_right_out[18]
*79 chanx_right_out[19]
*80 chanx_right_out[1]
*81 chanx_right_out[2]
*82 chanx_right_out[3]
*83 chanx_right_out[4]
*84 chanx_right_out[5]
*85 chanx_right_out[6]
*86 chanx_right_out[7]
*87 chanx_right_out[8]
*88 chanx_right_out[9]
*89 chany_top_in[0]
*90 chany_top_in[10]
*91 chany_top_in[11]
*92 chany_top_in[12]
*93 chany_top_in[13]
*94 chany_top_in[14]
*95 chany_top_in[15]
*96 chany_top_in[16]
*97 chany_top_in[17]
*98 chany_top_in[18]
*99 chany_top_in[19]
*100 chany_top_in[1]
*101 chany_top_in[2]
*102 chany_top_in[3]
*103 chany_top_in[4]
*104 chany_top_in[5]
*105 chany_top_in[6]
*106 chany_top_in[7]
*107 chany_top_in[8]
*108 chany_top_in[9]
*109 chany_top_out[0]
*110 chany_top_out[10]
*111 chany_top_out[11]
*112 chany_top_out[12]
*113 chany_top_out[13]
*114 chany_top_out[14]
*115 chany_top_out[15]
*116 chany_top_out[16]
*117 chany_top_out[17]
*118 chany_top_out[18]
*119 chany_top_out[19]
*120 chany_top_out[1]
*121 chany_top_out[2]
*122 chany_top_out[3]
*123 chany_top_out[4]
*124 chany_top_out[5]
*125 chany_top_out[6]
*126 chany_top_out[7]
*127 chany_top_out[8]
*128 chany_top_out[9]
*129 clk_3_N_out
*130 clk_3_S_in
*131 left_bottom_grid_pin_11_
*132 left_bottom_grid_pin_13_
*133 left_bottom_grid_pin_15_
*134 left_bottom_grid_pin_17_
*135 left_bottom_grid_pin_1_
*136 left_bottom_grid_pin_3_
*137 left_bottom_grid_pin_5_
*138 left_bottom_grid_pin_7_
*139 left_bottom_grid_pin_9_
*140 prog_clk_0_N_in
*141 prog_clk_3_N_out
*142 prog_clk_3_S_in
*143 right_bottom_grid_pin_11_
*144 right_bottom_grid_pin_13_
*145 right_bottom_grid_pin_15_
*146 right_bottom_grid_pin_17_
*147 right_bottom_grid_pin_1_
*148 right_bottom_grid_pin_3_
*149 right_bottom_grid_pin_5_
*150 right_bottom_grid_pin_7_
*151 right_bottom_grid_pin_9_
*152 top_left_grid_pin_42_
*153 top_left_grid_pin_43_
*154 top_left_grid_pin_44_
*155 top_left_grid_pin_45_
*156 top_left_grid_pin_46_
*157 top_left_grid_pin_47_
*158 top_left_grid_pin_48_
*159 top_left_grid_pin_49_
*160 mem_left_track_1\.ccff_head
*161 mem_left_track_1\.ccff_tail
*162 mem_left_track_1\.mem_out\[0\]
*163 mem_left_track_1\.mem_out\[1\]
*164 mem_left_track_1\.mem_out\[2\]
*165 mem_left_track_1\.prog_clk
*166 mem_left_track_17\.ccff_head
*167 mem_left_track_17\.ccff_tail
*168 mem_left_track_17\.mem_out\[0\]
*169 mem_left_track_17\.mem_out\[1\]
*170 mem_left_track_25\.ccff_tail
*171 mem_left_track_25\.mem_out\[0\]
*172 mem_left_track_25\.mem_out\[1\]
*173 mem_left_track_3\.ccff_tail
*174 mem_left_track_3\.mem_out\[0\]
*175 mem_left_track_3\.mem_out\[1\]
*176 mem_left_track_3\.mem_out\[2\]
*177 mem_left_track_33\.mem_out\[0\]
*178 mem_left_track_33\.mem_out\[1\]
*179 mem_left_track_5\.ccff_tail
*180 mem_left_track_5\.mem_out\[0\]
*181 mem_left_track_5\.mem_out\[1\]
*182 mem_left_track_5\.mem_out\[2\]
*183 mem_left_track_9\.mem_out\[0\]
*184 mem_left_track_9\.mem_out\[1\]
*185 mem_left_track_9\.mem_out\[2\]
*186 mem_right_track_0\.ccff_head
*187 mem_right_track_0\.ccff_tail
*188 mem_right_track_0\.mem_out\[0\]
*189 mem_right_track_0\.mem_out\[1\]
*190 mem_right_track_0\.mem_out\[2\]
*191 mem_right_track_16\.ccff_head
*192 mem_right_track_16\.ccff_tail
*193 mem_right_track_16\.mem_out\[0\]
*194 mem_right_track_16\.mem_out\[1\]
*195 mem_right_track_2\.ccff_tail
*196 mem_right_track_2\.mem_out\[0\]
*197 mem_right_track_2\.mem_out\[1\]
*198 mem_right_track_2\.mem_out\[2\]
*199 mem_right_track_24\.ccff_tail
*200 mem_right_track_24\.mem_out\[0\]
*201 mem_right_track_24\.mem_out\[1\]
*202 mem_right_track_32\.mem_out\[0\]
*203 mem_right_track_32\.mem_out\[1\]
*204 mem_right_track_4\.ccff_tail
*205 mem_right_track_4\.mem_out\[0\]
*206 mem_right_track_4\.mem_out\[1\]
*207 mem_right_track_4\.mem_out\[2\]
*208 mem_right_track_8\.mem_out\[0\]
*209 mem_right_track_8\.mem_out\[1\]
*210 mem_right_track_8\.mem_out\[2\]
*211 mem_top_track_0\.ccff_tail
*212 mem_top_track_0\.mem_out\[0\]
*213 mem_top_track_0\.mem_out\[1\]
*214 mem_top_track_0\.mem_out\[2\]
*215 mem_top_track_10\.ccff_head
*216 mem_top_track_10\.ccff_tail
*217 mem_top_track_10\.mem_out\[0\]
*218 mem_top_track_10\.mem_out\[1\]
*219 mem_top_track_12\.ccff_tail
*220 mem_top_track_12\.mem_out\[0\]
*221 mem_top_track_14\.ccff_tail
*222 mem_top_track_14\.mem_out\[0\]
*223 mem_top_track_16\.ccff_tail
*224 mem_top_track_16\.mem_out\[0\]
*225 mem_top_track_18\.ccff_tail
*226 mem_top_track_18\.mem_out\[0\]
*227 mem_top_track_2\.ccff_tail
*228 mem_top_track_2\.mem_out\[0\]
*229 mem_top_track_2\.mem_out\[1\]
*230 mem_top_track_20\.ccff_tail
*231 mem_top_track_20\.mem_out\[0\]
*232 mem_top_track_22\.ccff_tail
*233 mem_top_track_22\.mem_out\[0\]
*234 mem_top_track_24\.ccff_tail
*235 mem_top_track_24\.mem_out\[0\]
*236 mem_top_track_38\.mem_out\[0\]
*237 mem_top_track_4\.ccff_tail
*238 mem_top_track_4\.mem_out\[0\]
*239 mem_top_track_4\.mem_out\[1\]
*240 mem_top_track_6\.ccff_tail
*241 mem_top_track_6\.mem_out\[0\]
*242 mem_top_track_6\.mem_out\[1\]
*243 mem_top_track_8\.mem_out\[0\]
*244 mem_top_track_8\.mem_out\[1\]
*245 mux_left_track_1\.out
*246 mux_left_track_1\.sky130_fd_sc_hd__mux2_1_0_X
*247 mux_left_track_1\.sky130_fd_sc_hd__mux2_1_1_X
*248 mux_left_track_1\.sky130_fd_sc_hd__mux2_1_2_X
*249 mux_left_track_1\.sky130_fd_sc_hd__mux2_1_3_X
*250 mux_left_track_1\.sky130_fd_sc_hd__mux2_1_4_X
*251 mux_left_track_1\.sky130_fd_sc_hd__mux2_1_5_X
*252 mux_left_track_1\.sky130_fd_sc_hd__mux2_1_6_X
*253 mux_left_track_1\.sky130_fd_sc_hd__mux2_1_7_X
*254 mux_left_track_1\.sky130_fd_sc_hd__mux2_1_8_X
*255 mux_left_track_1\.sky130_fd_sc_hd__mux2_1_9_X
*256 mux_left_track_17\.out
*257 mux_left_track_17\.sky130_fd_sc_hd__mux2_1_0_X
*258 mux_left_track_17\.sky130_fd_sc_hd__mux2_1_1_X
*259 mux_left_track_17\.sky130_fd_sc_hd__mux2_1_2_X
*260 mux_left_track_17\.sky130_fd_sc_hd__mux2_1_3_X
*261 mux_left_track_17\.sky130_fd_sc_hd__mux2_1_4_X
*262 mux_left_track_17\.sky130_fd_sc_hd__mux2_1_5_X
*263 mux_left_track_17\.sky130_fd_sc_hd__mux2_1_6_X
*264 mux_left_track_25\.out
*265 mux_left_track_25\.sky130_fd_sc_hd__mux2_1_0_X
*266 mux_left_track_25\.sky130_fd_sc_hd__mux2_1_1_X
*267 mux_left_track_25\.sky130_fd_sc_hd__mux2_1_2_X
*268 mux_left_track_25\.sky130_fd_sc_hd__mux2_1_3_X
*269 mux_left_track_25\.sky130_fd_sc_hd__mux2_1_4_X
*270 mux_left_track_25\.sky130_fd_sc_hd__mux2_1_5_X
*271 mux_left_track_25\.sky130_fd_sc_hd__mux2_1_6_X
*272 mux_left_track_3\.out
*273 mux_left_track_3\.sky130_fd_sc_hd__mux2_1_0_X
*274 mux_left_track_3\.sky130_fd_sc_hd__mux2_1_1_X
*275 mux_left_track_3\.sky130_fd_sc_hd__mux2_1_2_X
*276 mux_left_track_3\.sky130_fd_sc_hd__mux2_1_3_X
*277 mux_left_track_3\.sky130_fd_sc_hd__mux2_1_4_X
*278 mux_left_track_3\.sky130_fd_sc_hd__mux2_1_5_X
*279 mux_left_track_3\.sky130_fd_sc_hd__mux2_1_6_X
*280 mux_left_track_3\.sky130_fd_sc_hd__mux2_1_7_X
*281 mux_left_track_33\.out
*282 mux_left_track_33\.sky130_fd_sc_hd__mux2_1_0_X
*283 mux_left_track_33\.sky130_fd_sc_hd__mux2_1_1_X
*284 mux_left_track_33\.sky130_fd_sc_hd__mux2_1_2_X
*285 mux_left_track_33\.sky130_fd_sc_hd__mux2_1_3_X
*286 mux_left_track_33\.sky130_fd_sc_hd__mux2_1_4_X
*287 mux_left_track_33\.sky130_fd_sc_hd__mux2_1_5_X
*288 mux_left_track_5\.out
*289 mux_left_track_5\.sky130_fd_sc_hd__mux2_1_0_X
*290 mux_left_track_5\.sky130_fd_sc_hd__mux2_1_10_X
*291 mux_left_track_5\.sky130_fd_sc_hd__mux2_1_11_X
*292 mux_left_track_5\.sky130_fd_sc_hd__mux2_1_12_X
*293 mux_left_track_5\.sky130_fd_sc_hd__mux2_1_13_X
*294 mux_left_track_5\.sky130_fd_sc_hd__mux2_1_1_X
*295 mux_left_track_5\.sky130_fd_sc_hd__mux2_1_2_X
*296 mux_left_track_5\.sky130_fd_sc_hd__mux2_1_3_X
*297 mux_left_track_5\.sky130_fd_sc_hd__mux2_1_4_X
*298 mux_left_track_5\.sky130_fd_sc_hd__mux2_1_5_X
*299 mux_left_track_5\.sky130_fd_sc_hd__mux2_1_6_X
*300 mux_left_track_5\.sky130_fd_sc_hd__mux2_1_7_X
*301 mux_left_track_5\.sky130_fd_sc_hd__mux2_1_8_X
*302 mux_left_track_5\.sky130_fd_sc_hd__mux2_1_9_X
*303 mux_left_track_9\.out
*304 mux_left_track_9\.sky130_fd_sc_hd__mux2_1_0_X
*305 mux_left_track_9\.sky130_fd_sc_hd__mux2_1_1_X
*306 mux_left_track_9\.sky130_fd_sc_hd__mux2_1_2_X
*307 mux_left_track_9\.sky130_fd_sc_hd__mux2_1_3_X
*308 mux_left_track_9\.sky130_fd_sc_hd__mux2_1_4_X
*309 mux_left_track_9\.sky130_fd_sc_hd__mux2_1_5_X
*310 mux_left_track_9\.sky130_fd_sc_hd__mux2_1_6_X
*311 mux_left_track_9\.sky130_fd_sc_hd__mux2_1_7_X
*312 mux_right_track_0\.out
*313 mux_right_track_0\.sky130_fd_sc_hd__mux2_1_0_X
*314 mux_right_track_0\.sky130_fd_sc_hd__mux2_1_1_X
*315 mux_right_track_0\.sky130_fd_sc_hd__mux2_1_2_X
*316 mux_right_track_0\.sky130_fd_sc_hd__mux2_1_3_X
*317 mux_right_track_0\.sky130_fd_sc_hd__mux2_1_4_X
*318 mux_right_track_0\.sky130_fd_sc_hd__mux2_1_5_X
*319 mux_right_track_0\.sky130_fd_sc_hd__mux2_1_6_X
*320 mux_right_track_0\.sky130_fd_sc_hd__mux2_1_7_X
*321 mux_right_track_0\.sky130_fd_sc_hd__mux2_1_8_X
*322 mux_right_track_16\.out
*323 mux_right_track_16\.sky130_fd_sc_hd__mux2_1_0_X
*324 mux_right_track_16\.sky130_fd_sc_hd__mux2_1_1_X
*325 mux_right_track_16\.sky130_fd_sc_hd__mux2_1_2_X
*326 mux_right_track_16\.sky130_fd_sc_hd__mux2_1_3_X
*327 mux_right_track_16\.sky130_fd_sc_hd__mux2_1_4_X
*328 mux_right_track_16\.sky130_fd_sc_hd__mux2_1_5_X
*329 mux_right_track_16\.sky130_fd_sc_hd__mux2_1_6_X
*330 mux_right_track_2\.out
*331 mux_right_track_2\.sky130_fd_sc_hd__mux2_1_0_X
*332 mux_right_track_2\.sky130_fd_sc_hd__mux2_1_1_X
*333 mux_right_track_2\.sky130_fd_sc_hd__mux2_1_2_X
*334 mux_right_track_2\.sky130_fd_sc_hd__mux2_1_3_X
*335 mux_right_track_2\.sky130_fd_sc_hd__mux2_1_4_X
*336 mux_right_track_2\.sky130_fd_sc_hd__mux2_1_5_X
*337 mux_right_track_2\.sky130_fd_sc_hd__mux2_1_6_X
*338 mux_right_track_2\.sky130_fd_sc_hd__mux2_1_7_X
*339 mux_right_track_2\.sky130_fd_sc_hd__mux2_1_8_X
*340 mux_right_track_24\.out
*341 mux_right_track_24\.sky130_fd_sc_hd__mux2_1_0_X
*342 mux_right_track_24\.sky130_fd_sc_hd__mux2_1_1_X
*343 mux_right_track_24\.sky130_fd_sc_hd__mux2_1_2_X
*344 mux_right_track_24\.sky130_fd_sc_hd__mux2_1_3_X
*345 mux_right_track_24\.sky130_fd_sc_hd__mux2_1_4_X
*346 mux_right_track_24\.sky130_fd_sc_hd__mux2_1_5_X
*347 mux_right_track_24\.sky130_fd_sc_hd__mux2_1_6_X
*348 mux_right_track_32\.out
*349 mux_right_track_32\.sky130_fd_sc_hd__mux2_1_0_X
*350 mux_right_track_32\.sky130_fd_sc_hd__mux2_1_1_X
*351 mux_right_track_32\.sky130_fd_sc_hd__mux2_1_2_X
*352 mux_right_track_32\.sky130_fd_sc_hd__mux2_1_3_X
*353 mux_right_track_32\.sky130_fd_sc_hd__mux2_1_4_X
*354 mux_right_track_32\.sky130_fd_sc_hd__mux2_1_5_X
*355 mux_right_track_4\.out
*356 mux_right_track_4\.sky130_fd_sc_hd__mux2_1_0_X
*357 mux_right_track_4\.sky130_fd_sc_hd__mux2_1_10_X
*358 mux_right_track_4\.sky130_fd_sc_hd__mux2_1_11_X
*359 mux_right_track_4\.sky130_fd_sc_hd__mux2_1_12_X
*360 mux_right_track_4\.sky130_fd_sc_hd__mux2_1_13_X
*361 mux_right_track_4\.sky130_fd_sc_hd__mux2_1_1_X
*362 mux_right_track_4\.sky130_fd_sc_hd__mux2_1_2_X
*363 mux_right_track_4\.sky130_fd_sc_hd__mux2_1_3_X
*364 mux_right_track_4\.sky130_fd_sc_hd__mux2_1_4_X
*365 mux_right_track_4\.sky130_fd_sc_hd__mux2_1_5_X
*366 mux_right_track_4\.sky130_fd_sc_hd__mux2_1_6_X
*367 mux_right_track_4\.sky130_fd_sc_hd__mux2_1_7_X
*368 mux_right_track_4\.sky130_fd_sc_hd__mux2_1_8_X
*369 mux_right_track_4\.sky130_fd_sc_hd__mux2_1_9_X
*370 mux_right_track_8\.out
*371 mux_right_track_8\.sky130_fd_sc_hd__mux2_1_0_X
*372 mux_right_track_8\.sky130_fd_sc_hd__mux2_1_1_X
*373 mux_right_track_8\.sky130_fd_sc_hd__mux2_1_2_X
*374 mux_right_track_8\.sky130_fd_sc_hd__mux2_1_3_X
*375 mux_right_track_8\.sky130_fd_sc_hd__mux2_1_4_X
*376 mux_right_track_8\.sky130_fd_sc_hd__mux2_1_5_X
*377 mux_right_track_8\.sky130_fd_sc_hd__mux2_1_6_X
*378 mux_right_track_8\.sky130_fd_sc_hd__mux2_1_7_X
*379 mux_top_track_0\.out
*380 mux_top_track_0\.sky130_fd_sc_hd__mux2_1_0_X
*381 mux_top_track_0\.sky130_fd_sc_hd__mux2_1_1_X
*382 mux_top_track_0\.sky130_fd_sc_hd__mux2_1_2_X
*383 mux_top_track_0\.sky130_fd_sc_hd__mux2_1_3_X
*384 mux_top_track_0\.sky130_fd_sc_hd__mux2_1_4_X
*385 mux_top_track_0\.sky130_fd_sc_hd__mux2_1_5_X
*386 mux_top_track_0\.sky130_fd_sc_hd__mux2_1_6_X
*387 mux_top_track_0\.sky130_fd_sc_hd__mux2_1_7_X
*388 mux_top_track_10\.out
*389 mux_top_track_10\.sky130_fd_sc_hd__mux2_1_0_X
*390 mux_top_track_10\.sky130_fd_sc_hd__mux2_1_1_X
*391 mux_top_track_10\.sky130_fd_sc_hd__mux2_1_2_X
*392 mux_top_track_10\.sky130_fd_sc_hd__mux2_1_3_X
*393 mux_top_track_12\.out
*394 mux_top_track_12\.sky130_fd_sc_hd__mux2_1_0_X
*395 mux_top_track_12\.sky130_fd_sc_hd__mux2_1_1_X
*396 mux_top_track_12\.sky130_fd_sc_hd__mux2_1_2_X
*397 mux_top_track_14\.out
*398 mux_top_track_14\.sky130_fd_sc_hd__mux2_1_0_X
*399 mux_top_track_14\.sky130_fd_sc_hd__mux2_1_1_X
*400 mux_top_track_14\.sky130_fd_sc_hd__mux2_1_2_X
*401 mux_top_track_16\.out
*402 mux_top_track_16\.sky130_fd_sc_hd__mux2_1_0_X
*403 mux_top_track_16\.sky130_fd_sc_hd__mux2_1_1_X
*404 mux_top_track_16\.sky130_fd_sc_hd__mux2_1_2_X
*405 mux_top_track_18\.out
*406 mux_top_track_18\.sky130_fd_sc_hd__mux2_1_0_X
*407 mux_top_track_18\.sky130_fd_sc_hd__mux2_1_1_X
*408 mux_top_track_18\.sky130_fd_sc_hd__mux2_1_2_X
*409 mux_top_track_2\.out
*410 mux_top_track_2\.sky130_fd_sc_hd__mux2_1_0_X
*411 mux_top_track_2\.sky130_fd_sc_hd__mux2_1_1_X
*412 mux_top_track_2\.sky130_fd_sc_hd__mux2_1_2_X
*413 mux_top_track_2\.sky130_fd_sc_hd__mux2_1_3_X
*414 mux_top_track_2\.sky130_fd_sc_hd__mux2_1_4_X
*415 mux_top_track_2\.sky130_fd_sc_hd__mux2_1_5_X
*416 mux_top_track_2\.sky130_fd_sc_hd__mux2_1_6_X
*417 mux_top_track_20\.out
*418 mux_top_track_20\.sky130_fd_sc_hd__mux2_1_0_X
*419 mux_top_track_20\.sky130_fd_sc_hd__mux2_1_1_X
*420 mux_top_track_20\.sky130_fd_sc_hd__mux2_1_2_X
*421 mux_top_track_22\.out
*422 mux_top_track_22\.sky130_fd_sc_hd__mux2_1_0_X
*423 mux_top_track_22\.sky130_fd_sc_hd__mux2_1_1_X
*424 mux_top_track_22\.sky130_fd_sc_hd__mux2_1_2_X
*425 mux_top_track_24\.out
*426 mux_top_track_24\.sky130_fd_sc_hd__mux2_1_0_X
*427 mux_top_track_24\.sky130_fd_sc_hd__mux2_1_1_X
*428 mux_top_track_24\.sky130_fd_sc_hd__mux2_1_2_X
*429 mux_top_track_38\.out
*430 mux_top_track_38\.sky130_fd_sc_hd__mux2_1_0_X
*431 mux_top_track_38\.sky130_fd_sc_hd__mux2_1_1_X
*432 mux_top_track_4\.out
*433 mux_top_track_4\.sky130_fd_sc_hd__mux2_1_0_X
*434 mux_top_track_4\.sky130_fd_sc_hd__mux2_1_1_X
*435 mux_top_track_4\.sky130_fd_sc_hd__mux2_1_2_X
*436 mux_top_track_4\.sky130_fd_sc_hd__mux2_1_3_X
*437 mux_top_track_4\.sky130_fd_sc_hd__mux2_1_4_X
*438 mux_top_track_4\.sky130_fd_sc_hd__mux2_1_5_X
*439 mux_top_track_4\.sky130_fd_sc_hd__mux2_1_6_X
*440 mux_top_track_6\.out
*441 mux_top_track_6\.sky130_fd_sc_hd__mux2_1_0_X
*442 mux_top_track_6\.sky130_fd_sc_hd__mux2_1_1_X
*443 mux_top_track_6\.sky130_fd_sc_hd__mux2_1_2_X
*444 mux_top_track_6\.sky130_fd_sc_hd__mux2_1_3_X
*445 mux_top_track_6\.sky130_fd_sc_hd__mux2_1_4_X
*446 mux_top_track_6\.sky130_fd_sc_hd__mux2_1_5_X
*447 mux_top_track_6\.sky130_fd_sc_hd__mux2_1_6_X
*448 mux_top_track_8\.out
*449 mux_top_track_8\.sky130_fd_sc_hd__mux2_1_0_X
*450 mux_top_track_8\.sky130_fd_sc_hd__mux2_1_1_X
*451 mux_top_track_8\.sky130_fd_sc_hd__mux2_1_2_X
*452 mux_top_track_8\.sky130_fd_sc_hd__mux2_1_3_X
*453 net1
*454 net10
*455 net100
*456 net101
*457 net102
*458 net103
*459 net104
*460 net105
*461 net106
*462 net107
*463 net108
*464 net109
*465 net11
*466 net110
*467 net111
*468 net112
*469 net113
*470 net114
*471 net115
*472 net116
*473 net117
*474 net118
*475 net119
*476 net12
*477 net120
*478 net121
*479 net122
*480 net123
*481 net124
*482 net125
*483 net126
*484 net127
*485 net128
*486 net129
*487 net13
*488 net130
*489 net131
*490 net132
*491 net133
*492 net134
*493 net135
*494 net136
*495 net137
*496 net138
*497 net139
*498 net14
*499 net140
*500 net141
*501 net142
*502 net143
*503 net144
*504 net145
*505 net146
*506 net147
*507 net148
*508 net149
*509 net15
*510 net150
*511 net151
*512 net152
*513 net153
*514 net154
*515 net155
*516 net156
*517 net157
*518 net158
*519 net159
*520 net16
*521 net160
*522 net161
*523 net162
*524 net163
*525 net164
*526 net165
*527 net166
*528 net167
*529 net168
*530 net169
*531 net17
*532 net170
*533 net171
*534 net172
*535 net173
*536 net174
*537 net175
*538 net176
*539 net177
*540 net178
*541 net179
*542 net18
*543 net180
*544 net181
*545 net182
*546 net183
*547 net184
*548 net185
*549 net186
*550 net187
*551 net188
*552 net189
*553 net19
*554 net2
*555 net20
*556 net21
*557 net22
*558 net23
*559 net24
*560 net25
*561 net26
*562 net27
*563 net28
*564 net29
*565 net3
*566 net30
*567 net31
*568 net32
*569 net33
*570 net34
*571 net35
*572 net36
*573 net37
*574 net38
*575 net39
*576 net4
*577 net40
*578 net41
*579 net42
*580 net43
*581 net44
*582 net45
*583 net46
*584 net47
*585 net48
*586 net49
*587 net5
*588 net50
*589 net51
*590 net52
*591 net53
*592 net54
*593 net55
*594 net56
*595 net57
*596 net58
*597 net59
*598 net6
*599 net60
*600 net61
*601 net62
*602 net63
*603 net64
*604 net65
*605 net66
*606 net67
*607 net68
*608 net69
*609 net7
*610 net70
*611 net71
*612 net72
*613 net73
*614 net74
*615 net75
*616 net76
*617 net77
*618 net78
*619 net79
*620 net8
*621 net80
*622 net81
*623 net82
*624 net83
*625 net84
*626 net85
*627 net86
*628 net87
*629 net88
*630 net89
*631 net9
*632 net90
*633 net91
*634 net92
*635 net93
*636 net94
*637 net95
*638 net96
*639 net97
*640 net98
*641 net99
*642 ANTENNA__060__A
*643 ANTENNA__062__A
*644 ANTENNA__063__A
*645 ANTENNA__064__A
*646 ANTENNA__066__A
*647 ANTENNA__067__A
*648 ANTENNA__068__A
*649 ANTENNA__070__A
*650 ANTENNA__071__A
*651 ANTENNA__072__A
*652 ANTENNA__074__A
*653 ANTENNA__075__A
*654 ANTENNA__076__A
*655 ANTENNA__080__A
*656 ANTENNA__082__A
*657 ANTENNA__083__A
*658 ANTENNA__084__A
*659 ANTENNA__086__A
*660 ANTENNA__087__A
*661 ANTENNA__088__A
*662 ANTENNA__090__A
*663 ANTENNA__091__A
*664 ANTENNA__092__A
*665 ANTENNA__094__A
*666 ANTENNA__095__A
*667 ANTENNA__096__A
*668 ANTENNA__110__A
*669 ANTENNA_input10_A
*670 ANTENNA_input11_A
*671 ANTENNA_input12_A
*672 ANTENNA_input13_A
*673 ANTENNA_input14_A
*674 ANTENNA_input15_A
*675 ANTENNA_input16_A
*676 ANTENNA_input17_A
*677 ANTENNA_input18_A
*678 ANTENNA_input19_A
*679 ANTENNA_input1_A
*680 ANTENNA_input20_A
*681 ANTENNA_input21_A
*682 ANTENNA_input22_A
*683 ANTENNA_input23_A
*684 ANTENNA_input24_A
*685 ANTENNA_input25_A
*686 ANTENNA_input26_A
*687 ANTENNA_input27_A
*688 ANTENNA_input28_A
*689 ANTENNA_input29_A
*690 ANTENNA_input2_A
*691 ANTENNA_input30_A
*692 ANTENNA_input31_A
*693 ANTENNA_input32_A
*694 ANTENNA_input33_A
*695 ANTENNA_input34_A
*696 ANTENNA_input35_A
*697 ANTENNA_input36_A
*698 ANTENNA_input37_A
*699 ANTENNA_input38_A
*700 ANTENNA_input39_A
*701 ANTENNA_input3_A
*702 ANTENNA_input40_A
*703 ANTENNA_input41_A
*704 ANTENNA_input42_A
*705 ANTENNA_input43_A
*706 ANTENNA_input44_A
*707 ANTENNA_input45_A
*708 ANTENNA_input46_A
*709 ANTENNA_input47_A
*710 ANTENNA_input48_A
*711 ANTENNA_input49_A
*712 ANTENNA_input4_A
*713 ANTENNA_input50_A
*714 ANTENNA_input51_A
*715 ANTENNA_input52_A
*716 ANTENNA_input53_A
*717 ANTENNA_input54_A
*718 ANTENNA_input55_A
*719 ANTENNA_input56_A
*720 ANTENNA_input57_A
*721 ANTENNA_input58_A
*722 ANTENNA_input59_A
*723 ANTENNA_input5_A
*724 ANTENNA_input60_A
*725 ANTENNA_input61_A
*726 ANTENNA_input62_A
*727 ANTENNA_input63_A
*728 ANTENNA_input64_A
*729 ANTENNA_input65_A
*730 ANTENNA_input66_A
*731 ANTENNA_input67_A
*732 ANTENNA_input68_A
*733 ANTENNA_input69_A
*734 ANTENNA_input6_A
*735 ANTENNA_input70_A
*736 ANTENNA_input71_A
*737 ANTENNA_input72_A
*738 ANTENNA_input73_A
*739 ANTENNA_input74_A
*740 ANTENNA_input75_A
*741 ANTENNA_input76_A
*742 ANTENNA_input77_A
*743 ANTENNA_input78_A
*744 ANTENNA_input79_A
*745 ANTENNA_input7_A
*746 ANTENNA_input80_A
*747 ANTENNA_input81_A
*748 ANTENNA_input82_A
*749 ANTENNA_input83_A
*750 ANTENNA_input84_A
*751 ANTENNA_input85_A
*752 ANTENNA_input86_A
*753 ANTENNA_input87_A
*754 ANTENNA_input88_A
*755 ANTENNA_input89_A
*756 ANTENNA_input8_A
*757 ANTENNA_input90_A
*758 ANTENNA_input91_A
*759 ANTENNA_input9_A
*760 ANTENNA_mem_left_track_1\.sky130_fd_sc_hd__dfxtp_1_0__CLK
*761 ANTENNA_mem_left_track_1\.sky130_fd_sc_hd__dfxtp_1_1__CLK
*762 ANTENNA_mem_left_track_1\.sky130_fd_sc_hd__dfxtp_1_2__CLK
*763 ANTENNA_mem_left_track_1\.sky130_fd_sc_hd__dfxtp_1_3__CLK
*764 ANTENNA_mem_left_track_17\.sky130_fd_sc_hd__dfxtp_1_0__CLK
*765 ANTENNA_mem_left_track_17\.sky130_fd_sc_hd__dfxtp_1_1__CLK
*766 ANTENNA_mem_left_track_17\.sky130_fd_sc_hd__dfxtp_1_2__CLK
*767 ANTENNA_mem_left_track_25\.sky130_fd_sc_hd__dfxtp_1_0__CLK
*768 ANTENNA_mem_left_track_25\.sky130_fd_sc_hd__dfxtp_1_1__CLK
*769 ANTENNA_mem_left_track_25\.sky130_fd_sc_hd__dfxtp_1_2__CLK
*770 ANTENNA_mem_left_track_3\.sky130_fd_sc_hd__dfxtp_1_0__CLK
*771 ANTENNA_mem_left_track_3\.sky130_fd_sc_hd__dfxtp_1_1__CLK
*772 ANTENNA_mem_left_track_3\.sky130_fd_sc_hd__dfxtp_1_2__CLK
*773 ANTENNA_mem_left_track_3\.sky130_fd_sc_hd__dfxtp_1_3__CLK
*774 ANTENNA_mem_left_track_33\.sky130_fd_sc_hd__dfxtp_1_0__CLK
*775 ANTENNA_mem_left_track_33\.sky130_fd_sc_hd__dfxtp_1_1__CLK
*776 ANTENNA_mem_left_track_33\.sky130_fd_sc_hd__dfxtp_1_2__CLK
*777 ANTENNA_mem_left_track_5\.sky130_fd_sc_hd__dfxtp_1_0__CLK
*778 ANTENNA_mem_left_track_5\.sky130_fd_sc_hd__dfxtp_1_1__CLK
*779 ANTENNA_mem_left_track_5\.sky130_fd_sc_hd__dfxtp_1_2__CLK
*780 ANTENNA_mem_left_track_5\.sky130_fd_sc_hd__dfxtp_1_3__CLK
*781 ANTENNA_mem_left_track_9\.sky130_fd_sc_hd__dfxtp_1_0__CLK
*782 ANTENNA_mem_left_track_9\.sky130_fd_sc_hd__dfxtp_1_1__CLK
*783 ANTENNA_mem_left_track_9\.sky130_fd_sc_hd__dfxtp_1_2__CLK
*784 ANTENNA_mem_left_track_9\.sky130_fd_sc_hd__dfxtp_1_3__CLK
*785 ANTENNA_mem_right_track_0\.sky130_fd_sc_hd__dfxtp_1_0__CLK
*786 ANTENNA_mem_right_track_0\.sky130_fd_sc_hd__dfxtp_1_1__CLK
*787 ANTENNA_mem_right_track_0\.sky130_fd_sc_hd__dfxtp_1_2__CLK
*788 ANTENNA_mem_right_track_0\.sky130_fd_sc_hd__dfxtp_1_3__CLK
*789 ANTENNA_mem_right_track_16\.sky130_fd_sc_hd__dfxtp_1_0__CLK
*790 ANTENNA_mem_right_track_16\.sky130_fd_sc_hd__dfxtp_1_1__CLK
*791 ANTENNA_mem_right_track_16\.sky130_fd_sc_hd__dfxtp_1_2__CLK
*792 ANTENNA_mem_right_track_2\.sky130_fd_sc_hd__dfxtp_1_0__CLK
*793 ANTENNA_mem_right_track_2\.sky130_fd_sc_hd__dfxtp_1_1__CLK
*794 ANTENNA_mem_right_track_2\.sky130_fd_sc_hd__dfxtp_1_2__CLK
*795 ANTENNA_mem_right_track_2\.sky130_fd_sc_hd__dfxtp_1_3__CLK
*796 ANTENNA_mem_right_track_24\.sky130_fd_sc_hd__dfxtp_1_0__CLK
*797 ANTENNA_mem_right_track_24\.sky130_fd_sc_hd__dfxtp_1_1__CLK
*798 ANTENNA_mem_right_track_24\.sky130_fd_sc_hd__dfxtp_1_2__CLK
*799 ANTENNA_mem_right_track_32\.sky130_fd_sc_hd__dfxtp_1_0__CLK
*800 ANTENNA_mem_right_track_32\.sky130_fd_sc_hd__dfxtp_1_1__CLK
*801 ANTENNA_mem_right_track_32\.sky130_fd_sc_hd__dfxtp_1_2__CLK
*802 ANTENNA_mem_right_track_4\.sky130_fd_sc_hd__dfxtp_1_0__CLK
*803 ANTENNA_mem_right_track_4\.sky130_fd_sc_hd__dfxtp_1_1__CLK
*804 ANTENNA_mem_right_track_4\.sky130_fd_sc_hd__dfxtp_1_2__CLK
*805 ANTENNA_mem_right_track_4\.sky130_fd_sc_hd__dfxtp_1_3__CLK
*806 ANTENNA_mem_right_track_8\.sky130_fd_sc_hd__dfxtp_1_0__CLK
*807 ANTENNA_mem_right_track_8\.sky130_fd_sc_hd__dfxtp_1_1__CLK
*808 ANTENNA_mem_right_track_8\.sky130_fd_sc_hd__dfxtp_1_2__CLK
*809 ANTENNA_mem_right_track_8\.sky130_fd_sc_hd__dfxtp_1_3__CLK
*810 ANTENNA_mem_top_track_0\.sky130_fd_sc_hd__dfxtp_1_0__CLK
*811 ANTENNA_mem_top_track_0\.sky130_fd_sc_hd__dfxtp_1_1__CLK
*812 ANTENNA_mem_top_track_0\.sky130_fd_sc_hd__dfxtp_1_2__CLK
*813 ANTENNA_mem_top_track_0\.sky130_fd_sc_hd__dfxtp_1_3__CLK
*814 ANTENNA_mem_top_track_10\.sky130_fd_sc_hd__dfxtp_1_0__CLK
*815 ANTENNA_mem_top_track_10\.sky130_fd_sc_hd__dfxtp_1_1__CLK
*816 ANTENNA_mem_top_track_10\.sky130_fd_sc_hd__dfxtp_1_2__CLK
*817 ANTENNA_mem_top_track_12\.sky130_fd_sc_hd__dfxtp_1_0__CLK
*818 ANTENNA_mem_top_track_12\.sky130_fd_sc_hd__dfxtp_1_1__CLK
*819 ANTENNA_mem_top_track_14\.sky130_fd_sc_hd__dfxtp_1_0__CLK
*820 ANTENNA_mem_top_track_14\.sky130_fd_sc_hd__dfxtp_1_1__CLK
*821 ANTENNA_mem_top_track_16\.sky130_fd_sc_hd__dfxtp_1_0__CLK
*822 ANTENNA_mem_top_track_16\.sky130_fd_sc_hd__dfxtp_1_1__CLK
*823 ANTENNA_mem_top_track_18\.sky130_fd_sc_hd__dfxtp_1_0__CLK
*824 ANTENNA_mem_top_track_18\.sky130_fd_sc_hd__dfxtp_1_1__CLK
*825 ANTENNA_mem_top_track_2\.sky130_fd_sc_hd__dfxtp_1_0__CLK
*826 ANTENNA_mem_top_track_2\.sky130_fd_sc_hd__dfxtp_1_1__CLK
*827 ANTENNA_mem_top_track_2\.sky130_fd_sc_hd__dfxtp_1_2__CLK
*828 ANTENNA_mem_top_track_20\.sky130_fd_sc_hd__dfxtp_1_0__CLK
*829 ANTENNA_mem_top_track_20\.sky130_fd_sc_hd__dfxtp_1_1__CLK
*830 ANTENNA_mem_top_track_22\.sky130_fd_sc_hd__dfxtp_1_0__CLK
*831 ANTENNA_mem_top_track_22\.sky130_fd_sc_hd__dfxtp_1_1__CLK
*832 ANTENNA_mem_top_track_24\.sky130_fd_sc_hd__dfxtp_1_0__CLK
*833 ANTENNA_mem_top_track_24\.sky130_fd_sc_hd__dfxtp_1_1__CLK
*834 ANTENNA_mem_top_track_38\.sky130_fd_sc_hd__dfxtp_1_0__CLK
*835 ANTENNA_mem_top_track_38\.sky130_fd_sc_hd__dfxtp_1_1__CLK
*836 ANTENNA_mem_top_track_4\.sky130_fd_sc_hd__dfxtp_1_0__CLK
*837 ANTENNA_mem_top_track_4\.sky130_fd_sc_hd__dfxtp_1_1__CLK
*838 ANTENNA_mem_top_track_4\.sky130_fd_sc_hd__dfxtp_1_2__CLK
*839 ANTENNA_mem_top_track_6\.sky130_fd_sc_hd__dfxtp_1_0__CLK
*840 ANTENNA_mem_top_track_6\.sky130_fd_sc_hd__dfxtp_1_1__CLK
*841 ANTENNA_mem_top_track_6\.sky130_fd_sc_hd__dfxtp_1_2__CLK
*842 ANTENNA_mem_top_track_8\.sky130_fd_sc_hd__dfxtp_1_0__CLK
*843 ANTENNA_mem_top_track_8\.sky130_fd_sc_hd__dfxtp_1_1__CLK
*844 ANTENNA_mem_top_track_8\.sky130_fd_sc_hd__dfxtp_1_2__CLK
*845 ANTENNA_mux_left_track_1\.mux_l1_in_1__A0
*846 ANTENNA_mux_left_track_1\.mux_l1_in_1__A1
*847 ANTENNA_mux_left_track_1\.mux_l1_in_2__A1
*848 ANTENNA_mux_left_track_17\.mux_l1_in_1__A0
*849 ANTENNA_mux_left_track_17\.mux_l1_in_2__A1
*850 ANTENNA_mux_left_track_25\.mux_l1_in_1__A0
*851 ANTENNA_mux_left_track_25\.mux_l1_in_1__A1
*852 ANTENNA_mux_left_track_25\.mux_l1_in_2__A1
*853 ANTENNA_mux_left_track_3\.mux_l2_in_0__A0
*854 ANTENNA_mux_left_track_3\.mux_l2_in_1__A1
*855 ANTENNA_mux_left_track_33\.mux_l1_in_1__A0
*856 ANTENNA_mux_left_track_33\.mux_l1_in_1__A1
*857 ANTENNA_mux_left_track_5\.mux_l1_in_1__A0
*858 ANTENNA_mux_left_track_5\.mux_l1_in_1__A1
*859 ANTENNA_mux_left_track_5\.mux_l1_in_2__A1
*860 ANTENNA_mux_left_track_9\.mux_l2_in_1__A0
*861 ANTENNA_mux_left_track_9\.mux_l2_in_1__A1
*862 ANTENNA_mux_right_track_0\.mux_l2_in_2__A0
*863 ANTENNA_mux_right_track_0\.mux_l2_in_3__A1
*864 ANTENNA_mux_right_track_16\.mux_l1_in_2__A0
*865 ANTENNA_mux_right_track_16\.mux_l1_in_3__A1
*866 ANTENNA_mux_right_track_2\.mux_l1_in_1__A1
*867 ANTENNA_mux_right_track_2\.mux_l2_in_2__A0
*868 ANTENNA_mux_right_track_2\.mux_l2_in_3__A1
*869 ANTENNA_mux_right_track_24\.mux_l1_in_2__A0
*870 ANTENNA_mux_right_track_24\.mux_l1_in_3__A1
*871 ANTENNA_mux_right_track_32\.mux_l1_in_1__A1
*872 ANTENNA_mux_right_track_32\.mux_l1_in_2__A0
*873 ANTENNA_mux_right_track_4\.mux_l1_in_1__A1
*874 ANTENNA_mux_right_track_4\.mux_l1_in_6__A0
*875 ANTENNA_mux_right_track_4\.mux_l1_in_6__A1
*876 ANTENNA_mux_right_track_8\.mux_l2_in_0__A0
*877 ANTENNA_mux_right_track_8\.mux_l2_in_2__A0
*878 ANTENNA_mux_right_track_8\.mux_l2_in_3__A1
*879 ANTENNA_mux_top_track_0\.mux_l2_in_1__A1
*880 ANTENNA_mux_top_track_0\.mux_l2_in_2__A1
*881 ANTENNA_mux_top_track_0\.mux_l2_in_3__A1
*882 ANTENNA_mux_top_track_10\.mux_l1_in_0__A0
*883 ANTENNA_mux_top_track_10\.mux_l1_in_0__A1
*884 ANTENNA_mux_top_track_10\.mux_l2_in_1__A1
*885 ANTENNA_mux_top_track_12\.mux_l1_in_0__A0
*886 ANTENNA_mux_top_track_12\.mux_l1_in_1__A1
*887 ANTENNA_mux_top_track_14\.mux_l1_in_0__A0
*888 ANTENNA_mux_top_track_14\.mux_l1_in_1__A1
*889 ANTENNA_mux_top_track_16\.mux_l1_in_0__A0
*890 ANTENNA_mux_top_track_16\.mux_l1_in_1__A1
*891 ANTENNA_mux_top_track_18\.mux_l1_in_0__A0
*892 ANTENNA_mux_top_track_18\.mux_l1_in_1__A1
*893 ANTENNA_mux_top_track_2\.mux_l1_in_0__A1
*894 ANTENNA_mux_top_track_2\.mux_l1_in_2__A0
*895 ANTENNA_mux_top_track_2\.mux_l1_in_3__A1
*896 ANTENNA_mux_top_track_20\.mux_l1_in_0__A0
*897 ANTENNA_mux_top_track_20\.mux_l1_in_0__A1
*898 ANTENNA_mux_top_track_20\.mux_l1_in_1__A1
*899 ANTENNA_mux_top_track_22\.mux_l1_in_0__A0
*900 ANTENNA_mux_top_track_22\.mux_l1_in_1__A1
*901 ANTENNA_mux_top_track_24\.mux_l1_in_0__A0
*902 ANTENNA_mux_top_track_24\.mux_l1_in_1__A1
*903 ANTENNA_mux_top_track_4\.mux_l1_in_1__A0
*904 ANTENNA_mux_top_track_4\.mux_l1_in_2__A1