*SPEF "ieee 1481-1999"
*DESIGN "sb_1__2_"
*DATE "11:11:11 Fri 11 11, 1111"
*VENDOR "OpenRCX"
*PROGRAM "Parallel Extraction"
*VERSION "1.0"
*DESIGN_FLOW "NAME_SCOPE LOCAL" "PIN_CAP NONE"
*DIVIDER /
*DELIMITER :
*BUS_DELIMITER []
*T_UNIT 1 NS
*C_UNIT 1 PF
*R_UNIT 1 OHM
*L_UNIT 1 HENRY

*NAME_MAP
*1 SC_IN_BOT
*2 SC_OUT_BOT
*5 bottom_left_grid_pin_42_
*6 bottom_left_grid_pin_43_
*7 bottom_left_grid_pin_44_
*8 bottom_left_grid_pin_45_
*9 bottom_left_grid_pin_46_
*10 bottom_left_grid_pin_47_
*11 bottom_left_grid_pin_48_
*12 bottom_left_grid_pin_49_
*13 ccff_head
*14 ccff_tail
*15 chanx_left_in[0]
*16 chanx_left_in[10]
*17 chanx_left_in[11]
*18 chanx_left_in[12]
*19 chanx_left_in[13]
*20 chanx_left_in[14]
*21 chanx_left_in[15]
*22 chanx_left_in[16]
*23 chanx_left_in[17]
*24 chanx_left_in[18]
*25 chanx_left_in[19]
*26 chanx_left_in[1]
*27 chanx_left_in[2]
*28 chanx_left_in[3]
*29 chanx_left_in[4]
*30 chanx_left_in[5]
*31 chanx_left_in[6]
*32 chanx_left_in[7]
*33 chanx_left_in[8]
*34 chanx_left_in[9]
*35 chanx_left_out[0]
*36 chanx_left_out[10]
*37 chanx_left_out[11]
*38 chanx_left_out[12]
*39 chanx_left_out[13]
*40 chanx_left_out[14]
*41 chanx_left_out[15]
*42 chanx_left_out[16]
*43 chanx_left_out[17]
*44 chanx_left_out[18]
*45 chanx_left_out[19]
*46 chanx_left_out[1]
*47 chanx_left_out[2]
*48 chanx_left_out[3]
*49 chanx_left_out[4]
*50 chanx_left_out[5]
*51 chanx_left_out[6]
*52 chanx_left_out[7]
*53 chanx_left_out[8]
*54 chanx_left_out[9]
*55 chanx_right_in[0]
*56 chanx_right_in[10]
*57 chanx_right_in[11]
*58 chanx_right_in[12]
*59 chanx_right_in[13]
*60 chanx_right_in[14]
*61 chanx_right_in[15]
*62 chanx_right_in[16]
*63 chanx_right_in[17]
*64 chanx_right_in[18]
*65 chanx_right_in[19]
*66 chanx_right_in[1]
*67 chanx_right_in[2]
*68 chanx_right_in[3]
*69 chanx_right_in[4]
*70 chanx_right_in[5]
*71 chanx_right_in[6]
*72 chanx_right_in[7]
*73 chanx_right_in[8]
*74 chanx_right_in[9]
*75 chanx_right_out[0]
*76 chanx_right_out[10]
*77 chanx_right_out[11]
*78 chanx_right_out[12]
*79 chanx_right_out[13]
*80 chanx_right_out[14]
*81 chanx_right_out[15]
*82 chanx_right_out[16]
*83 chanx_right_out[17]
*84 chanx_right_out[18]
*85 chanx_right_out[19]
*86 chanx_right_out[1]
*87 chanx_right_out[2]
*88 chanx_right_out[3]
*89 chanx_right_out[4]
*90 chanx_right_out[5]
*91 chanx_right_out[6]
*92 chanx_right_out[7]
*93 chanx_right_out[8]
*94 chanx_right_out[9]
*95 chany_bottom_in[0]
*96 chany_bottom_in[10]
*97 chany_bottom_in[11]
*98 chany_bottom_in[12]
*99 chany_bottom_in[13]
*100 chany_bottom_in[14]
*101 chany_bottom_in[15]
*102 chany_bottom_in[16]
*103 chany_bottom_in[17]
*104 chany_bottom_in[18]
*105 chany_bottom_in[19]
*106 chany_bottom_in[1]
*107 chany_bottom_in[2]
*108 chany_bottom_in[3]
*109 chany_bottom_in[4]
*110 chany_bottom_in[5]
*111 chany_bottom_in[6]
*112 chany_bottom_in[7]
*113 chany_bottom_in[8]
*114 chany_bottom_in[9]
*115 chany_bottom_out[0]
*116 chany_bottom_out[10]
*117 chany_bottom_out[11]
*118 chany_bottom_out[12]
*119 chany_bottom_out[13]
*120 chany_bottom_out[14]
*121 chany_bottom_out[15]
*122 chany_bottom_out[16]
*123 chany_bottom_out[17]
*124 chany_bottom_out[18]
*125 chany_bottom_out[19]
*126 chany_bottom_out[1]
*127 chany_bottom_out[2]
*128 chany_bottom_out[3]
*129 chany_bottom_out[4]
*130 chany_bottom_out[5]
*131 chany_bottom_out[6]
*132 chany_bottom_out[7]
*133 chany_bottom_out[8]
*134 chany_bottom_out[9]
*135 left_bottom_grid_pin_34_
*136 left_bottom_grid_pin_35_
*137 left_bottom_grid_pin_36_
*138 left_bottom_grid_pin_37_
*139 left_bottom_grid_pin_38_
*140 left_bottom_grid_pin_39_
*141 left_bottom_grid_pin_40_
*142 left_bottom_grid_pin_41_
*143 left_top_grid_pin_1_
*144 prog_clk_0_S_in
*145 right_bottom_grid_pin_34_
*146 right_bottom_grid_pin_35_
*147 right_bottom_grid_pin_36_
*148 right_bottom_grid_pin_37_
*149 right_bottom_grid_pin_38_
*150 right_bottom_grid_pin_39_
*151 right_bottom_grid_pin_40_
*152 right_bottom_grid_pin_41_
*153 right_top_grid_pin_1_
*154 _000_
*155 _001_
*156 _002_
*157 _003_
*158 _004_
*159 _005_
*160 _006_
*161 _007_
*162 _008_
*163 _009_
*164 _010_
*165 _011_
*166 _012_
*167 _013_
*168 _014_
*169 _015_
*170 _016_
*171 _017_
*172 _018_
*173 _019_
*174 _020_
*175 _021_
*176 _022_
*177 _023_
*178 _024_
*179 _025_
*180 _026_
*181 _027_
*182 mem_bottom_track_1\.ccff_head
*183 mem_bottom_track_1\.ccff_tail
*184 mem_bottom_track_1\.mem_out\[0\]
*185 mem_bottom_track_1\.mem_out\[1\]
*186 mem_bottom_track_1\.prog_clk
*187 mem_bottom_track_11\.ccff_head
*188 mem_bottom_track_11\.ccff_tail
*189 mem_bottom_track_11\.mem_out\[0\]
*190 mem_bottom_track_11\.mem_out\[1\]
*191 mem_bottom_track_13\.ccff_tail
*192 mem_bottom_track_13\.mem_out\[0\]
*193 mem_bottom_track_15\.ccff_tail
*194 mem_bottom_track_15\.mem_out\[0\]
*195 mem_bottom_track_17\.ccff_tail
*196 mem_bottom_track_17\.mem_out\[0\]
*197 mem_bottom_track_19\.ccff_tail
*198 mem_bottom_track_19\.mem_out\[0\]
*199 mem_bottom_track_21\.ccff_tail
*200 mem_bottom_track_21\.mem_out\[0\]
*201 mem_bottom_track_23\.ccff_tail
*202 mem_bottom_track_23\.mem_out\[0\]
*203 mem_bottom_track_25\.ccff_tail
*204 mem_bottom_track_25\.mem_out\[0\]
*205 mem_bottom_track_25\.mem_out\[1\]
*206 mem_bottom_track_27\.ccff_tail
*207 mem_bottom_track_27\.mem_out\[0\]
*208 mem_bottom_track_3\.ccff_tail
*209 mem_bottom_track_3\.mem_out\[0\]
*210 mem_bottom_track_3\.mem_out\[1\]
*211 mem_bottom_track_5\.ccff_tail
*212 mem_bottom_track_5\.mem_out\[0\]
*213 mem_bottom_track_5\.mem_out\[1\]
*214 mem_bottom_track_7\.ccff_tail
*215 mem_bottom_track_7\.mem_out\[0\]
*216 mem_bottom_track_7\.mem_out\[1\]
*217 mem_bottom_track_9\.mem_out\[0\]
*218 mem_bottom_track_9\.mem_out\[1\]
*219 mem_left_track_1\.ccff_tail
*220 mem_left_track_1\.mem_out\[0\]
*221 mem_left_track_1\.mem_out\[1\]
*222 mem_left_track_1\.mem_out\[2\]
*223 mem_left_track_17\.ccff_head
*224 mem_left_track_17\.ccff_tail
*225 mem_left_track_17\.mem_out\[0\]
*226 mem_left_track_17\.mem_out\[1\]
*227 mem_left_track_25\.ccff_tail
*228 mem_left_track_25\.mem_out\[0\]
*229 mem_left_track_25\.mem_out\[1\]
*230 mem_left_track_3\.ccff_tail
*231 mem_left_track_3\.mem_out\[0\]
*232 mem_left_track_3\.mem_out\[1\]
*233 mem_left_track_3\.mem_out\[2\]
*234 mem_left_track_33\.mem_out\[0\]
*235 mem_left_track_33\.mem_out\[1\]
*236 mem_left_track_5\.ccff_tail
*237 mem_left_track_5\.mem_out\[0\]
*238 mem_left_track_5\.mem_out\[1\]
*239 mem_left_track_5\.mem_out\[2\]
*240 mem_left_track_9\.mem_out\[0\]
*241 mem_left_track_9\.mem_out\[1\]
*242 mem_left_track_9\.mem_out\[2\]
*243 mem_right_track_0\.ccff_tail
*244 mem_right_track_0\.mem_out\[0\]
*245 mem_right_track_0\.mem_out\[1\]
*246 mem_right_track_0\.mem_out\[2\]
*247 mem_right_track_16\.ccff_head
*248 mem_right_track_16\.ccff_tail
*249 mem_right_track_16\.mem_out\[0\]
*250 mem_right_track_16\.mem_out\[1\]
*251 mem_right_track_2\.ccff_tail
*252 mem_right_track_2\.mem_out\[0\]
*253 mem_right_track_2\.mem_out\[1\]
*254 mem_right_track_2\.mem_out\[2\]
*255 mem_right_track_24\.ccff_tail
*256 mem_right_track_24\.mem_out\[0\]
*257 mem_right_track_24\.mem_out\[1\]
*258 mem_right_track_32\.mem_out\[0\]
*259 mem_right_track_32\.mem_out\[1\]
*260 mem_right_track_4\.ccff_tail
*261 mem_right_track_4\.mem_out\[0\]
*262 mem_right_track_4\.mem_out\[1\]
*263 mem_right_track_4\.mem_out\[2\]
*264 mem_right_track_8\.mem_out\[0\]
*265 mem_right_track_8\.mem_out\[1\]
*266 mem_right_track_8\.mem_out\[2\]
*267 mux_bottom_track_1\.out
*268 mux_bottom_track_1\.sky130_fd_sc_hd__mux2_1_0_X
*269 mux_bottom_track_1\.sky130_fd_sc_hd__mux2_1_1_X
*270 mux_bottom_track_1\.sky130_fd_sc_hd__mux2_1_2_X
*271 mux_bottom_track_1\.sky130_fd_sc_hd__mux2_1_3_X
*272 mux_bottom_track_1\.sky130_fd_sc_hd__mux2_1_4_X
*273 mux_bottom_track_1\.sky130_fd_sc_hd__mux2_1_5_X
*274 mux_bottom_track_1\.sky130_fd_sc_hd__mux2_1_6_X
*275 mux_bottom_track_11\.out
*276 mux_bottom_track_11\.sky130_fd_sc_hd__mux2_1_0_X
*277 mux_bottom_track_11\.sky130_fd_sc_hd__mux2_1_1_X
*278 mux_bottom_track_11\.sky130_fd_sc_hd__mux2_1_2_X
*279 mux_bottom_track_11\.sky130_fd_sc_hd__mux2_1_3_X
*280 mux_bottom_track_13\.out
*281 mux_bottom_track_13\.sky130_fd_sc_hd__mux2_1_0_X
*282 mux_bottom_track_13\.sky130_fd_sc_hd__mux2_1_1_X
*283 mux_bottom_track_13\.sky130_fd_sc_hd__mux2_1_2_X
*284 mux_bottom_track_15\.out
*285 mux_bottom_track_15\.sky130_fd_sc_hd__mux2_1_0_X
*286 mux_bottom_track_15\.sky130_fd_sc_hd__mux2_1_1_X
*287 mux_bottom_track_15\.sky130_fd_sc_hd__mux2_1_2_X
*288 mux_bottom_track_17\.out
*289 mux_bottom_track_17\.sky130_fd_sc_hd__mux2_1_0_X
*290 mux_bottom_track_17\.sky130_fd_sc_hd__mux2_1_1_X
*291 mux_bottom_track_17\.sky130_fd_sc_hd__mux2_1_2_X
*292 mux_bottom_track_19\.out
*293 mux_bottom_track_19\.sky130_fd_sc_hd__mux2_1_0_X
*294 mux_bottom_track_19\.sky130_fd_sc_hd__mux2_1_1_X
*295 mux_bottom_track_19\.sky130_fd_sc_hd__mux2_1_2_X
*296 mux_bottom_track_21\.out
*297 mux_bottom_track_21\.sky130_fd_sc_hd__mux2_1_0_X
*298 mux_bottom_track_21\.sky130_fd_sc_hd__mux2_1_1_X
*299 mux_bottom_track_21\.sky130_fd_sc_hd__mux2_1_2_X
*300 mux_bottom_track_23\.out
*301 mux_bottom_track_23\.sky130_fd_sc_hd__mux2_1_0_X
*302 mux_bottom_track_23\.sky130_fd_sc_hd__mux2_1_1_X
*303 mux_bottom_track_23\.sky130_fd_sc_hd__mux2_1_2_X
*304 mux_bottom_track_25\.out
*305 mux_bottom_track_25\.sky130_fd_sc_hd__mux2_1_0_X
*306 mux_bottom_track_25\.sky130_fd_sc_hd__mux2_1_1_X
*307 mux_bottom_track_25\.sky130_fd_sc_hd__mux2_1_2_X
*308 mux_bottom_track_25\.sky130_fd_sc_hd__mux2_1_3_X
*309 mux_bottom_track_27\.out
*310 mux_bottom_track_27\.sky130_fd_sc_hd__mux2_1_0_X
*311 mux_bottom_track_27\.sky130_fd_sc_hd__mux2_1_1_X
*312 mux_bottom_track_3\.out
*313 mux_bottom_track_3\.sky130_fd_sc_hd__mux2_1_0_X
*314 mux_bottom_track_3\.sky130_fd_sc_hd__mux2_1_1_X
*315 mux_bottom_track_3\.sky130_fd_sc_hd__mux2_1_2_X
*316 mux_bottom_track_3\.sky130_fd_sc_hd__mux2_1_3_X
*317 mux_bottom_track_3\.sky130_fd_sc_hd__mux2_1_4_X
*318 mux_bottom_track_3\.sky130_fd_sc_hd__mux2_1_5_X
*319 mux_bottom_track_3\.sky130_fd_sc_hd__mux2_1_6_X
*320 mux_bottom_track_5\.out
*321 mux_bottom_track_5\.sky130_fd_sc_hd__mux2_1_0_X
*322 mux_bottom_track_5\.sky130_fd_sc_hd__mux2_1_1_X
*323 mux_bottom_track_5\.sky130_fd_sc_hd__mux2_1_2_X
*324 mux_bottom_track_5\.sky130_fd_sc_hd__mux2_1_3_X
*325 mux_bottom_track_5\.sky130_fd_sc_hd__mux2_1_4_X
*326 mux_bottom_track_5\.sky130_fd_sc_hd__mux2_1_5_X
*327 mux_bottom_track_5\.sky130_fd_sc_hd__mux2_1_6_X
*328 mux_bottom_track_7\.out
*329 mux_bottom_track_7\.sky130_fd_sc_hd__mux2_1_0_X
*330 mux_bottom_track_7\.sky130_fd_sc_hd__mux2_1_1_X
*331 mux_bottom_track_7\.sky130_fd_sc_hd__mux2_1_2_X
*332 mux_bottom_track_7\.sky130_fd_sc_hd__mux2_1_3_X
*333 mux_bottom_track_7\.sky130_fd_sc_hd__mux2_1_4_X
*334 mux_bottom_track_7\.sky130_fd_sc_hd__mux2_1_5_X
*335 mux_bottom_track_7\.sky130_fd_sc_hd__mux2_1_6_X
*336 mux_bottom_track_9\.out
*337 mux_bottom_track_9\.sky130_fd_sc_hd__mux2_1_0_X
*338 mux_bottom_track_9\.sky130_fd_sc_hd__mux2_1_1_X
*339 mux_bottom_track_9\.sky130_fd_sc_hd__mux2_1_2_X
*340 mux_bottom_track_9\.sky130_fd_sc_hd__mux2_1_3_X
*341 mux_left_track_1\.out
*342 mux_left_track_1\.sky130_fd_sc_hd__mux2_1_0_X
*343 mux_left_track_1\.sky130_fd_sc_hd__mux2_1_1_X
*344 mux_left_track_1\.sky130_fd_sc_hd__mux2_1_2_X
*345 mux_left_track_1\.sky130_fd_sc_hd__mux2_1_3_X
*346 mux_left_track_1\.sky130_fd_sc_hd__mux2_1_4_X
*347 mux_left_track_1\.sky130_fd_sc_hd__mux2_1_5_X
*348 mux_left_track_1\.sky130_fd_sc_hd__mux2_1_6_X
*349 mux_left_track_1\.sky130_fd_sc_hd__mux2_1_7_X
*350 mux_left_track_1\.sky130_fd_sc_hd__mux2_1_8_X
*351 mux_left_track_17\.out
*352 mux_left_track_17\.sky130_fd_sc_hd__mux2_1_0_X
*353 mux_left_track_17\.sky130_fd_sc_hd__mux2_1_1_X
*354 mux_left_track_17\.sky130_fd_sc_hd__mux2_1_2_X
*355 mux_left_track_17\.sky130_fd_sc_hd__mux2_1_3_X
*356 mux_left_track_17\.sky130_fd_sc_hd__mux2_1_4_X
*357 mux_left_track_17\.sky130_fd_sc_hd__mux2_1_5_X
*358 mux_left_track_17\.sky130_fd_sc_hd__mux2_1_6_X
*359 mux_left_track_25\.out
*360 mux_left_track_25\.sky130_fd_sc_hd__mux2_1_0_X
*361 mux_left_track_25\.sky130_fd_sc_hd__mux2_1_1_X
*362 mux_left_track_25\.sky130_fd_sc_hd__mux2_1_2_X
*363 mux_left_track_25\.sky130_fd_sc_hd__mux2_1_3_X
*364 mux_left_track_25\.sky130_fd_sc_hd__mux2_1_4_X
*365 mux_left_track_25\.sky130_fd_sc_hd__mux2_1_5_X
*366 mux_left_track_25\.sky130_fd_sc_hd__mux2_1_6_X
*367 mux_left_track_3\.out
*368 mux_left_track_3\.sky130_fd_sc_hd__mux2_1_0_X
*369 mux_left_track_3\.sky130_fd_sc_hd__mux2_1_1_X
*370 mux_left_track_3\.sky130_fd_sc_hd__mux2_1_2_X
*371 mux_left_track_3\.sky130_fd_sc_hd__mux2_1_3_X
*372 mux_left_track_3\.sky130_fd_sc_hd__mux2_1_4_X
*373 mux_left_track_3\.sky130_fd_sc_hd__mux2_1_5_X
*374 mux_left_track_3\.sky130_fd_sc_hd__mux2_1_6_X
*375 mux_left_track_3\.sky130_fd_sc_hd__mux2_1_7_X
*376 mux_left_track_3\.sky130_fd_sc_hd__mux2_1_8_X
*377 mux_left_track_33\.out
*378 mux_left_track_33\.sky130_fd_sc_hd__mux2_1_0_X
*379 mux_left_track_33\.sky130_fd_sc_hd__mux2_1_1_X
*380 mux_left_track_33\.sky130_fd_sc_hd__mux2_1_2_X
*381 mux_left_track_33\.sky130_fd_sc_hd__mux2_1_3_X
*382 mux_left_track_33\.sky130_fd_sc_hd__mux2_1_4_X
*383 mux_left_track_33\.sky130_fd_sc_hd__mux2_1_5_X
*384 mux_left_track_5\.out
*385 mux_left_track_5\.sky130_fd_sc_hd__mux2_1_0_X
*386 mux_left_track_5\.sky130_fd_sc_hd__mux2_1_10_X
*387 mux_left_track_5\.sky130_fd_sc_hd__mux2_1_11_X
*388 mux_left_track_5\.sky130_fd_sc_hd__mux2_1_12_X
*389 mux_left_track_5\.sky130_fd_sc_hd__mux2_1_13_X
*390 mux_left_track_5\.sky130_fd_sc_hd__mux2_1_1_X
*391 mux_left_track_5\.sky130_fd_sc_hd__mux2_1_2_X
*392 mux_left_track_5\.sky130_fd_sc_hd__mux2_1_3_X
*393 mux_left_track_5\.sky130_fd_sc_hd__mux2_1_4_X
*394 mux_left_track_5\.sky130_fd_sc_hd__mux2_1_5_X
*395 mux_left_track_5\.sky130_fd_sc_hd__mux2_1_6_X
*396 mux_left_track_5\.sky130_fd_sc_hd__mux2_1_7_X
*397 mux_left_track_5\.sky130_fd_sc_hd__mux2_1_8_X
*398 mux_left_track_5\.sky130_fd_sc_hd__mux2_1_9_X
*399 mux_left_track_9\.out
*400 mux_left_track_9\.sky130_fd_sc_hd__mux2_1_0_X
*401 mux_left_track_9\.sky130_fd_sc_hd__mux2_1_1_X
*402 mux_left_track_9\.sky130_fd_sc_hd__mux2_1_2_X
*403 mux_left_track_9\.sky130_fd_sc_hd__mux2_1_3_X
*404 mux_left_track_9\.sky130_fd_sc_hd__mux2_1_4_X
*405 mux_left_track_9\.sky130_fd_sc_hd__mux2_1_5_X
*406 mux_left_track_9\.sky130_fd_sc_hd__mux2_1_6_X
*407 mux_left_track_9\.sky130_fd_sc_hd__mux2_1_7_X
*408 mux_right_track_0\.out
*409 mux_right_track_0\.sky130_fd_sc_hd__mux2_1_0_X
*410 mux_right_track_0\.sky130_fd_sc_hd__mux2_1_1_X
*411 mux_right_track_0\.sky130_fd_sc_hd__mux2_1_2_X
*412 mux_right_track_0\.sky130_fd_sc_hd__mux2_1_3_X
*413 mux_right_track_0\.sky130_fd_sc_hd__mux2_1_4_X
*414 mux_right_track_0\.sky130_fd_sc_hd__mux2_1_5_X
*415 mux_right_track_0\.sky130_fd_sc_hd__mux2_1_6_X
*416 mux_right_track_0\.sky130_fd_sc_hd__mux2_1_7_X
*417 mux_right_track_0\.sky130_fd_sc_hd__mux2_1_8_X
*418 mux_right_track_0\.sky130_fd_sc_hd__mux2_1_9_X
*419 mux_right_track_16\.out
*420 mux_right_track_16\.sky130_fd_sc_hd__mux2_1_0_X
*421 mux_right_track_16\.sky130_fd_sc_hd__mux2_1_1_X
*422 mux_right_track_16\.sky130_fd_sc_hd__mux2_1_2_X
*423 mux_right_track_16\.sky130_fd_sc_hd__mux2_1_3_X
*424 mux_right_track_16\.sky130_fd_sc_hd__mux2_1_4_X
*425 mux_right_track_16\.sky130_fd_sc_hd__mux2_1_5_X
*426 mux_right_track_16\.sky130_fd_sc_hd__mux2_1_6_X
*427 mux_right_track_2\.out
*428 mux_right_track_2\.sky130_fd_sc_hd__mux2_1_0_X
*429 mux_right_track_2\.sky130_fd_sc_hd__mux2_1_1_X
*430 mux_right_track_2\.sky130_fd_sc_hd__mux2_1_2_X
*431 mux_right_track_2\.sky130_fd_sc_hd__mux2_1_3_X
*432 mux_right_track_2\.sky130_fd_sc_hd__mux2_1_4_X
*433 mux_right_track_2\.sky130_fd_sc_hd__mux2_1_5_X
*434 mux_right_track_2\.sky130_fd_sc_hd__mux2_1_6_X
*435 mux_right_track_2\.sky130_fd_sc_hd__mux2_1_7_X
*436 mux_right_track_2\.sky130_fd_sc_hd__mux2_1_8_X
*437 mux_right_track_24\.out
*438 mux_right_track_24\.sky130_fd_sc_hd__mux2_1_0_X
*439 mux_right_track_24\.sky130_fd_sc_hd__mux2_1_1_X
*440 mux_right_track_24\.sky130_fd_sc_hd__mux2_1_2_X
*441 mux_right_track_24\.sky130_fd_sc_hd__mux2_1_3_X
*442 mux_right_track_24\.sky130_fd_sc_hd__mux2_1_4_X
*443 mux_right_track_24\.sky130_fd_sc_hd__mux2_1_5_X
*444 mux_right_track_24\.sky130_fd_sc_hd__mux2_1_6_X
*445 mux_right_track_32\.out
*446 mux_right_track_32\.sky130_fd_sc_hd__mux2_1_0_X
*447 mux_right_track_32\.sky130_fd_sc_hd__mux2_1_1_X
*448 mux_right_track_32\.sky130_fd_sc_hd__mux2_1_2_X
*449 mux_right_track_32\.sky130_fd_sc_hd__mux2_1_3_X
*450 mux_right_track_32\.sky130_fd_sc_hd__mux2_1_4_X
*451 mux_right_track_4\.out
*452 mux_right_track_4\.sky130_fd_sc_hd__mux2_1_0_X
*453 mux_right_track_4\.sky130_fd_sc_hd__mux2_1_10_X
*454 mux_right_track_4\.sky130_fd_sc_hd__mux2_1_11_X
*455 mux_right_track_4\.sky130_fd_sc_hd__mux2_1_12_X
*456 mux_right_track_4\.sky130_fd_sc_hd__mux2_1_13_X
*457 mux_right_track_4\.sky130_fd_sc_hd__mux2_1_1_X
*458 mux_right_track_4\.sky130_fd_sc_hd__mux2_1_2_X
*459 mux_right_track_4\.sky130_fd_sc_hd__mux2_1_3_X
*460 mux_right_track_4\.sky130_fd_sc_hd__mux2_1_4_X
*461 mux_right_track_4\.sky130_fd_sc_hd__mux2_1_5_X
*462 mux_right_track_4\.sky130_fd_sc_hd__mux2_1_6_X
*463 mux_right_track_4\.sky130_fd_sc_hd__mux2_1_7_X
*464 mux_right_track_4\.sky130_fd_sc_hd__mux2_1_8_X
*465 mux_right_track_4\.sky130_fd_sc_hd__mux2_1_9_X
*466 mux_right_track_8\.out
*467 mux_right_track_8\.sky130_fd_sc_hd__mux2_1_0_X
*468 mux_right_track_8\.sky130_fd_sc_hd__mux2_1_1_X
*469 mux_right_track_8\.sky130_fd_sc_hd__mux2_1_2_X
*470 mux_right_track_8\.sky130_fd_sc_hd__mux2_1_3_X
*471 mux_right_track_8\.sky130_fd_sc_hd__mux2_1_4_X
*472 mux_right_track_8\.sky130_fd_sc_hd__mux2_1_5_X
*473 mux_right_track_8\.sky130_fd_sc_hd__mux2_1_6_X
*474 mux_right_track_8\.sky130_fd_sc_hd__mux2_1_7_X
*475 ANTENNA__056__A
*476 ANTENNA__060__A
*477 ANTENNA__062__A
*478 ANTENNA__063__A
*479 ANTENNA__064__A
*480 ANTENNA__066__A
*481 ANTENNA__067__A
*482 ANTENNA__068__A
*483 ANTENNA__070__A
*484 ANTENNA__071__A
*485 ANTENNA__072__A
*486 ANTENNA__074__A
*487 ANTENNA__075__A
*488 ANTENNA__076__A
*489 ANTENNA__080__A
*490 ANTENNA__082__A
*491 ANTENNA__083__A
*492 ANTENNA__084__A
*493 ANTENNA__086__A
*494 ANTENNA__087__A
*495 ANTENNA__088__A
*496 ANTENNA__090__A
*497 ANTENNA__091__A
*498 ANTENNA__092__A
*499 ANTENNA__094__A
*500 ANTENNA__095__A
*501 ANTENNA__096__A
*502 ANTENNA__111__A
*503 ANTENNA__112__A
*504 ANTENNA__113__A
*505 ANTENNA__114__A
*506 ANTENNA__115__A
*507 ANTENNA__116__A
*508 ANTENNA_mem_bottom_track_1\.sky130_fd_sc_hd__dfxtp_1_0__CLK
*509 ANTENNA_mem_bottom_track_1\.sky130_fd_sc_hd__dfxtp_1_1__CLK
*510 ANTENNA_mem_bottom_track_1\.sky130_fd_sc_hd__dfxtp_1_1__D
*511 ANTENNA_mem_bottom_track_1\.sky130_fd_sc_hd__dfxtp_1_2__CLK
*512 ANTENNA_mem_bottom_track_11\.sky130_fd_sc_hd__dfxtp_1_0__CLK
*513 ANTENNA_mem_bottom_track_11\.sky130_fd_sc_hd__dfxtp_1_1__CLK
*514 ANTENNA_mem_bottom_track_11\.sky130_fd_sc_hd__dfxtp_1_2__CLK
*515 ANTENNA_mem_bottom_track_13\.sky130_fd_sc_hd__dfxtp_1_0__CLK
*516 ANTENNA_mem_bottom_track_13\.sky130_fd_sc_hd__dfxtp_1_1__CLK
*517 ANTENNA_mem_bottom_track_15\.sky130_fd_sc_hd__dfxtp_1_0__CLK
*518 ANTENNA_mem_bottom_track_15\.sky130_fd_sc_hd__dfxtp_1_1__CLK
*519 ANTENNA_mem_bottom_track_17\.sky130_fd_sc_hd__dfxtp_1_0__CLK
*520 ANTENNA_mem_bottom_track_17\.sky130_fd_sc_hd__dfxtp_1_1__CLK
*521 ANTENNA_mem_bottom_track_19\.sky130_fd_sc_hd__dfxtp_1_0__CLK
*522 ANTENNA_mem_bottom_track_19\.sky130_fd_sc_hd__dfxtp_1_1__CLK
*523 ANTENNA_mem_bottom_track_21\.sky130_fd_sc_hd__dfxtp_1_0__CLK
*524 ANTENNA_mem_bottom_track_21\.sky130_fd_sc_hd__dfxtp_1_1__CLK
*525 ANTENNA_mem_bottom_track_23\.sky130_fd_sc_hd__dfxtp_1_0__CLK
*526 ANTENNA_mem_bottom_track_23\.sky130_fd_sc_hd__dfxtp_1_1__CLK
*527 ANTENNA_mem_bottom_track_25\.sky130_fd_sc_hd__dfxtp_1_0__CLK
*528 ANTENNA_mem_bottom_track_25\.sky130_fd_sc_hd__dfxtp_1_1__CLK
*529 ANTENNA_mem_bottom_track_25\.sky130_fd_sc_hd__dfxtp_1_2__CLK
*530 ANTENNA_mem_bottom_track_27\.sky130_fd_sc_hd__dfxtp_1_0__CLK
*531 ANTENNA_mem_bottom_track_27\.sky130_fd_sc_hd__dfxtp_1_1__CLK
*532 ANTENNA_mem_bottom_track_3\.sky130_fd_sc_hd__dfxtp_1_0__CLK
*533 ANTENNA_mem_bottom_track_3\.sky130_fd_sc_hd__dfxtp_1_1__CLK
*534 ANTENNA_mem_bottom_track_3\.sky130_fd_sc_hd__dfxtp_1_2__CLK
*535 ANTENNA_mem_bottom_track_5\.sky130_fd_sc_hd__dfxtp_1_0__CLK
*536 ANTENNA_mem_bottom_track_5\.sky130_fd_sc_hd__dfxtp_1_1__CLK
*537 ANTENNA_mem_bottom_track_5\.sky130_fd_sc_hd__dfxtp_1_2__CLK
*538 ANTENNA_mem_bottom_track_7\.sky130_fd_sc_hd__dfxtp_1_0__CLK
*539 ANTENNA_mem_bottom_track_7\.sky130_fd_sc_hd__dfxtp_1_1__CLK
*540 ANTENNA_mem_bottom_track_7\.sky130_fd_sc_hd__dfxtp_1_2__CLK
*541 ANTENNA_mem_bottom_track_9\.sky130_fd_sc_hd__dfxtp_1_0__CLK
*542 ANTENNA_mem_bottom_track_9\.sky130_fd_sc_hd__dfxtp_1_1__CLK
*543 ANTENNA_mem_bottom_track_9\.sky130_fd_sc_hd__dfxtp_1_2__CLK
*544 ANTENNA_mem_left_track_1\.sky130_fd_sc_hd__dfxtp_1_0__CLK
*545 ANTENNA_mem_left_track_1\.sky130_fd_sc_hd__dfxtp_1_1__CLK
*546 ANTENNA_mem_left_track_1\.sky130_fd_sc_hd__dfxtp_1_1__D
*547 ANTENNA_mem_left_track_1\.sky130_fd_sc_hd__dfxtp_1_2__CLK
*548 ANTENNA_mem_left_track_1\.sky130_fd_sc_hd__dfxtp_1_2__D
*549 ANTENNA_mem_left_track_1\.sky130_fd_sc_hd__dfxtp_1_3__CLK
*550 ANTENNA_mem_left_track_1\.sky130_fd_sc_hd__dfxtp_1_3__D
*551 ANTENNA_mem_left_track_17\.sky130_fd_sc_hd__dfxtp_1_0__CLK
*552 ANTENNA_mem_left_track_17\.sky130_fd_sc_hd__dfxtp_1_1__CLK
*553 ANTENNA_mem_left_track_17\.sky130_fd_sc_hd__dfxtp_1_1__D
*554 ANTENNA_mem_left_track_17\.sky130_fd_sc_hd__dfxtp_1_2__CLK
*555 ANTENNA_mem_left_track_25\.sky130_fd_sc_hd__dfxtp_1_0__CLK
*556 ANTENNA_mem_left_track_25\.sky130_fd_sc_hd__dfxtp_1_1__CLK
*557 ANTENNA_mem_left_track_25\.sky130_fd_sc_hd__dfxtp_1_1__D
*558 ANTENNA_mem_left_track_25\.sky130_fd_sc_hd__dfxtp_1_2__CLK
*559 ANTENNA_mem_left_track_3\.sky130_fd_sc_hd__dfxtp_1_0__CLK
*560 ANTENNA_mem_left_track_3\.sky130_fd_sc_hd__dfxtp_1_0__D
*561 ANTENNA_mem_left_track_3\.sky130_fd_sc_hd__dfxtp_1_1__CLK
*562 ANTENNA_mem_left_track_3\.sky130_fd_sc_hd__dfxtp_1_2__CLK
*563 ANTENNA_mem_left_track_3\.sky130_fd_sc_hd__dfxtp_1_3__CLK
*564 ANTENNA_mem_left_track_33\.sky130_fd_sc_hd__dfxtp_1_0__CLK
*565 ANTENNA_mem_left_track_33\.sky130_fd_sc_hd__dfxtp_1_1__CLK
*566 ANTENNA_mem_left_track_33\.sky130_fd_sc_hd__dfxtp_1_1__D
*567 ANTENNA_mem_left_track_33\.sky130_fd_sc_hd__dfxtp_1_2__CLK
*568 ANTENNA_mem_left_track_33\.sky130_fd_sc_hd__dfxtp_1_2__D
*569 ANTENNA_mem_left_track_5\.sky130_fd_sc_hd__dfxtp_1_0__CLK
*570 ANTENNA_mem_left_track_5\.sky130_fd_sc_hd__dfxtp_1_1__CLK
*571 ANTENNA_mem_left_track_5\.sky130_fd_sc_hd__dfxtp_1_1__D
*572 ANTENNA_mem_left_track_5\.sky130_fd_sc_hd__dfxtp_1_2__CLK
*573 ANTENNA_mem_left_track_5\.sky130_fd_sc_hd__dfxtp_1_2__D
*574 ANTENNA_mem_left_track_5\.sky130_fd_sc_hd__dfxtp_1_3__CLK
*575 ANTENNA_mem_left_track_9\.sky130_fd_sc_hd__dfxtp_1_0__CLK
*576 ANTENNA_mem_left_track_9\.sky130_fd_sc_hd__dfxtp_1_1__CLK
*577 ANTENNA_mem_left_track_9\.sky130_fd_sc_hd__dfxtp_1_2__CLK
*578 ANTENNA_mem_left_track_9\.sky130_fd_sc_hd__dfxtp_1_3__CLK
*579 ANTENNA_mem_right_track_0\.sky130_fd_sc_hd__dfxtp_1_0__CLK
*580 ANTENNA_mem_right_track_0\.sky130_fd_sc_hd__dfxtp_1_0__D
*581 ANTENNA_mem_right_track_0\.sky130_fd_sc_hd__dfxtp_1_1__CLK
*582 ANTENNA_mem_right_track_0\.sky130_fd_sc_hd__dfxtp_1_2__CLK
*583 ANTENNA_mem_right_track_0\.sky130_fd_sc_hd__dfxtp_1_2__D
*584 ANTENNA_mem_right_track_0\.sky130_fd_sc_hd__dfxtp_1_3__CLK
*585 ANTENNA_mem_right_track_16\.sky130_fd_sc_hd__dfxtp_1_0__CLK
*586 ANTENNA_mem_right_track_16\.sky130_fd_sc_hd__dfxtp_1_1__CLK
*587 ANTENNA_mem_right_track_16\.sky130_fd_sc_hd__dfxtp_1_1__D
*588 ANTENNA_mem_right_track_16\.sky130_fd_sc_hd__dfxtp_1_2__CLK
*589 ANTENNA_mem_right_track_16\.sky130_fd_sc_hd__dfxtp_1_2__D
*590 ANTENNA_mem_right_track_2\.sky130_fd_sc_hd__dfxtp_1_0__CLK
*591 ANTENNA_mem_right_track_2\.sky130_fd_sc_hd__dfxtp_1_1__CLK
*592 ANTENNA_mem_right_track_2\.sky130_fd_sc_hd__dfxtp_1_2__CLK
*593 ANTENNA_mem_right_track_2\.sky130_fd_sc_hd__dfxtp_1_2__D
*594 ANTENNA_mem_right_track_2\.sky130_fd_sc_hd__dfxtp_1_3__CLK
*595 ANTENNA_mem_right_track_24\.sky130_fd_sc_hd__dfxtp_1_0__CLK
*596 ANTENNA_mem_right_track_24\.sky130_fd_sc_hd__dfxtp_1_1__CLK
*597 ANTENNA_mem_right_track_24\.sky130_fd_sc_hd__dfxtp_1_1__D
*598 ANTENNA_mem_right_track_24\.sky130_fd_sc_hd__dfxtp_1_2__CLK
*599 ANTENNA_mem_right_track_32\.sky130_fd_sc_hd__dfxtp_1_0__CLK
*600 ANTENNA_mem_right_track_32\.sky130_fd_sc_hd__dfxtp_1_1__CLK
*601 ANTENNA_mem_right_track_32\.sky130_fd_sc_hd__dfxtp_1_2__CLK
*602 ANTENNA_mem_right_track_4\.sky130_fd_sc_hd__dfxtp_1_0__CLK
*603 ANTENNA_mem_right_track_4\.sky130_fd_sc_hd__dfxtp_1_1__CLK
*604 ANTENNA_mem_right_track_4\.sky130_fd_sc_hd__dfxtp_1_1__D
*605 ANTENNA_mem_right_track_4\.sky130_fd_sc_hd__dfxtp_1_2__CLK
*606 ANTENNA_mem_right_track_4\.sky130_fd_sc_hd__dfxtp_1_3__CLK
*607 ANTENNA_mem_right_track_8\.sky130_fd_sc_hd__dfxtp_1_0__CLK
*608 ANTENNA_mem_right_track_8\.sky130_fd_sc_hd__dfxtp_1_1__CLK
*609 ANTENNA_mem_right_track_8\.sky130_fd_sc_hd__dfxtp_1_2__CLK
*610 ANTENNA_mem_right_track_8\.sky130_fd_sc_hd__dfxtp_1_2__D
*611 ANTENNA_mem_right_track_8\.sky130_fd_sc_hd__dfxtp_1_3__CLK
*612 ANTENNA_mux_bottom_track_1\.mux_l1_in_0__A0
*613 ANTENNA_mux_bottom_track_1\.mux_l1_in_0__A1
*614 ANTENNA_mux_bottom_track_1\.mux_l1_in_0__S
*615 ANTENNA_mux_bottom_track_1\.mux_l1_in_1__A0
*616 ANTENNA_mux_bottom_track_1\.mux_l1_in_1__A1
*617 ANTENNA_mux_bottom_track_1\.mux_l1_in_1__S
*618 ANTENNA_mux_bottom_track_1\.mux_l1_in_2__A0
*619 ANTENNA_mux_bottom_track_1\.mux_l1_in_2__A1
*620 ANTENNA_mux_bottom_track_1\.mux_l1_in_2__S
*621 ANTENNA_mux_bottom_track_1\.mux_l1_in_3__A1
*622 ANTENNA_mux_bottom_track_1\.mux_l1_in_3__S
*623 ANTENNA_mux_bottom_track_11\.mux_l1_in_0__A0
*624 ANTENNA_mux_bottom_track_11\.mux_l1_in_0__A1
*625 ANTENNA_mux_bottom_track_11\.mux_l2_in_0__A0
*626 ANTENNA_mux_bottom_track_11\.mux_l2_in_1__A1
*627 ANTENNA_mux_bottom_track_13\.mux_l1_in_0__A0
*628 ANTENNA_mux_bottom_track_13\.mux_l1_in_0__A1
*629 ANTENNA_mux_bottom_track_13\.mux_l1_in_1__A1
*630 ANTENNA_mux_bottom_track_15\.mux_l1_in_0__A0
*631 ANTENNA_mux_bottom_track_15\.mux_l1_in_0__A1
*632 ANTENNA_mux_bottom_track_15\.mux_l1_in_1__A1
*633 ANTENNA_mux_bottom_track_17\.mux_l1_in_0__A0
*634 ANTENNA_mux_bottom_track_17\.mux_l1_in_0__A1
*635 ANTENNA_mux_bottom_track_17\.mux_l1_in_1__A1
*636 ANTENNA_mux_bottom_track_19\.mux_l1_in_0__A0
*637 ANTENNA_mux_bottom_track_19\.mux_l1_in_0__A1
*638 ANTENNA_mux_bottom_track_19\.mux_l1_in_1__A1
*639 ANTENNA_mux_bottom_track_21\.mux_l1_in_0__A0
*640 ANTENNA_mux_bottom_track_21\.mux_l1_in_0__A1
*641 ANTENNA_mux_bottom_track_21\.mux_l1_in_1__A1
*642 ANTENNA_mux_bottom_track_23\.mux_l1_in_0__A0
*643 ANTENNA_mux_bottom_track_23\.mux_l1_in_0__A1
*644 ANTENNA_mux_bottom_track_23\.mux_l1_in_1__A1
*645 ANTENNA_mux_bottom_track_25\.mux_l1_in_0__A0
*646 ANTENNA_mux_bottom_track_25\.mux_l1_in_0__A1
*647 ANTENNA_mux_bottom_track_25\.mux_l2_in_0__A0
*648 ANTENNA_mux_bottom_track_25\.mux_l2_in_1__A1
*649 ANTENNA_mux_bottom_track_27\.mux_l1_in_0__A0
*650 ANTENNA_mux_bottom_track_27\.mux_l1_in_0__A1
*651 ANTENNA_mux_bottom_track_3\.mux_l1_in_0__A0
*652 ANTENNA_mux_bottom_track_3\.mux_l1_in_0__A1
*653 ANTENNA_mux_bottom_track_3\.mux_l1_in_1__A0
*654 ANTENNA_mux_bottom_track_3\.mux_l1_in_1__A1
*655 ANTENNA_mux_bottom_track_3\.mux_l1_in_2__A0
*656 ANTENNA_mux_bottom_track_3\.mux_l1_in_2__A1
*657 ANTENNA_mux_bottom_track_3\.mux_l1_in_3__A1
*658 ANTENNA_mux_bottom_track_5\.mux_l1_in_0__A0
*659 ANTENNA_mux_bottom_track_5\.mux_l1_in_0__A1
*660 ANTENNA_mux_bottom_track_5\.mux_l1_in_1__A0
*661 ANTENNA_mux_bottom_track_5\.mux_l1_in_1__A1
*662 ANTENNA_mux_bottom_track_5\.mux_l1_in_2__A0
*663 ANTENNA_mux_bottom_track_5\.mux_l1_in_2__A1
*664 ANTENNA_mux_bottom_track_5\.mux_l1_in_3__A1
*665 ANTENNA_mux_bottom_track_7\.mux_l1_in_0__A0
*666 ANTENNA_mux_bottom_track_7\.mux_l1_in_0__A1
*667 ANTENNA_mux_bottom_track_7\.mux_l1_in_1__A0
*668 ANTENNA_mux_bottom_track_7\.mux_l1_in_1__A1
*669 ANTENNA_mux_bottom_track_7\.mux_l1_in_2__A0
*670 ANTENNA_mux_bottom_track_7\.mux_l1_in_2__A1
*671 ANTENNA_mux_bottom_track_7\.mux_l1_in_3__A1
*672 ANTENNA_mux_bottom_track_9\.mux_l1_in_0__A0
*673 ANTENNA_mux_bottom_track_9\.mux_l1_in_0__A1
*674 ANTENNA_mux_bottom_track_9\.mux_l2_in_0__A0
*675 ANTENNA_mux_bottom_track_9\.mux_l2_in_1__A1
*676 ANTENNA_mux_left_track_1\.mux_l1_in_0__A0
*677 ANTENNA_mux_left_track_1\.mux_l1_in_0__A1
*678 ANTENNA_mux_left_track_1\.mux_l1_in_0__S
*679 ANTENNA_mux_left_track_1\.mux_l1_in_1__A0
*680 ANTENNA_mux_left_track_1\.mux_l1_in_1__A1
*681 ANTENNA_mux_left_track_1\.mux_l1_in_1__S
*682 ANTENNA_mux_left_track_1\.mux_l2_in_0__S
*683 ANTENNA_mux_left_track_1\.mux_l2_in_1__A0
*684 ANTENNA_mux_left_track_1\.mux_l2_in_1__A1
*685 ANTENNA_mux_left_track_1\.mux_l2_in_1__S
*686 ANTENNA_mux_left_track_1\.mux_l2_in_2__A0
*687 ANTENNA_mux_left_track_1\.mux_l2_in_2__A1
*688 ANTENNA_mux_left_track_1\.mux_l2_in_2__S
*689 ANTENNA_mux_left_track_1\.mux_l2_in_3__A1
*690 ANTENNA_mux_left_track_1\.mux_l2_in_3__S
*691 ANTENNA_mux_left_track_1\.mux_l3_in_0__S
*692 ANTENNA_mux_left_track_1\.mux_l3_in_1__S
*693 ANTENNA_mux_left_track_1\.mux_l4_in_0__S
*694 ANTENNA_mux_left_track_17\.mux_l1_in_0__A0
*695 ANTENNA_mux_left_track_17\.mux_l1_in_0__A1
*696 ANTENNA_mux_left_track_17\.mux_l1_in_0__S
*697 ANTENNA_mux_left_track_17\.mux_l1_in_1__A0
*698 ANTENNA_mux_left_track_17\.mux_l1_in_1__A1
*699 ANTENNA_mux_left_track_17\.mux_l1_in_1__S
*700 ANTENNA_mux_left_track_17\.mux_l1_in_2__A0
*701 ANTENNA_mux_left_track_17\.mux_l1_in_2__A1
*702 ANTENNA_mux_left_track_17\.mux_l1_in_2__S
*703 ANTENNA_mux_left_track_17\.mux_l1_in_3__A1
*704 ANTENNA_mux_left_track_17\.mux_l1_in_3__S
*705 ANTENNA_mux_left_track_25\.mux_l1_in_0__A0
*706 ANTENNA_mux_left_track_25\.mux_l1_in_0__A1
*707 ANTENNA_mux_left_track_25\.mux_l1_in_0__S
*708 ANTENNA_mux_left_track_25\.mux_l1_in_1__A0
*709 ANTENNA_mux_left_track_25\.mux_l1_in_1__A1
*710 ANTENNA_mux_left_track_25\.mux_l1_in_1__S
*711 ANTENNA_mux_left_track_25\.mux_l1_in_2__A0
*712 ANTENNA_mux_left_track_25\.mux_l1_in_2__A1
*713 ANTENNA_mux_left_track_25\.mux_l1_in_2__S
*714 ANTENNA_mux_left_track_25\.mux_l1_in_3__A1
*715 ANTENNA_mux_left_track_25\.mux_l1_in_3__S