*SPEF "ieee 1481-1999"
*DESIGN "sb_1__1_"
*DATE "11:11:11 Fri 11 11, 1111"
*VENDOR "OpenRCX"
*PROGRAM "Parallel Extraction"
*VERSION "1.0"
*DESIGN_FLOW "NAME_SCOPE LOCAL" "PIN_CAP NONE"
*DIVIDER /
*DELIMITER :
*BUS_DELIMITER []
*T_UNIT 1 NS
*C_UNIT 1 PF
*R_UNIT 1 OHM
*L_UNIT 1 HENRY

*NAME_MAP
*1 Test_en_N_out
*2 Test_en_S_in
*5 bottom_left_grid_pin_42_
*6 bottom_left_grid_pin_43_
*7 bottom_left_grid_pin_44_
*8 bottom_left_grid_pin_45_
*9 bottom_left_grid_pin_46_
*10 bottom_left_grid_pin_47_
*11 bottom_left_grid_pin_48_
*12 bottom_left_grid_pin_49_
*13 ccff_head
*14 ccff_tail
*15 chanx_left_in[0]
*16 chanx_left_in[10]
*17 chanx_left_in[11]
*18 chanx_left_in[12]
*19 chanx_left_in[13]
*20 chanx_left_in[14]
*21 chanx_left_in[15]
*22 chanx_left_in[16]
*23 chanx_left_in[17]
*24 chanx_left_in[18]
*25 chanx_left_in[19]
*26 chanx_left_in[1]
*27 chanx_left_in[2]
*28 chanx_left_in[3]
*29 chanx_left_in[4]
*30 chanx_left_in[5]
*31 chanx_left_in[6]
*32 chanx_left_in[7]
*33 chanx_left_in[8]
*34 chanx_left_in[9]
*35 chanx_left_out[0]
*36 chanx_left_out[10]
*37 chanx_left_out[11]
*38 chanx_left_out[12]
*39 chanx_left_out[13]
*40 chanx_left_out[14]
*41 chanx_left_out[15]
*42 chanx_left_out[16]
*43 chanx_left_out[17]
*44 chanx_left_out[18]
*45 chanx_left_out[19]
*46 chanx_left_out[1]
*47 chanx_left_out[2]
*48 chanx_left_out[3]
*49 chanx_left_out[4]
*50 chanx_left_out[5]
*51 chanx_left_out[6]
*52 chanx_left_out[7]
*53 chanx_left_out[8]
*54 chanx_left_out[9]
*55 chanx_right_in[0]
*56 chanx_right_in[10]
*57 chanx_right_in[11]
*58 chanx_right_in[12]
*59 chanx_right_in[13]
*60 chanx_right_in[14]
*61 chanx_right_in[15]
*62 chanx_right_in[16]
*63 chanx_right_in[17]
*64 chanx_right_in[18]
*65 chanx_right_in[19]
*66 chanx_right_in[1]
*67 chanx_right_in[2]
*68 chanx_right_in[3]
*69 chanx_right_in[4]
*70 chanx_right_in[5]
*71 chanx_right_in[6]
*72 chanx_right_in[7]
*73 chanx_right_in[8]
*74 chanx_right_in[9]
*75 chanx_right_out[0]
*76 chanx_right_out[10]
*77 chanx_right_out[11]
*78 chanx_right_out[12]
*79 chanx_right_out[13]
*80 chanx_right_out[14]
*81 chanx_right_out[15]
*82 chanx_right_out[16]
*83 chanx_right_out[17]
*84 chanx_right_out[18]
*85 chanx_right_out[19]
*86 chanx_right_out[1]
*87 chanx_right_out[2]
*88 chanx_right_out[3]
*89 chanx_right_out[4]
*90 chanx_right_out[5]
*91 chanx_right_out[6]
*92 chanx_right_out[7]
*93 chanx_right_out[8]
*94 chanx_right_out[9]
*95 chany_bottom_in[0]
*96 chany_bottom_in[10]
*97 chany_bottom_in[11]
*98 chany_bottom_in[12]
*99 chany_bottom_in[13]
*100 chany_bottom_in[14]
*101 chany_bottom_in[15]
*102 chany_bottom_in[16]
*103 chany_bottom_in[17]
*104 chany_bottom_in[18]
*105 chany_bottom_in[19]
*106 chany_bottom_in[1]
*107 chany_bottom_in[2]
*108 chany_bottom_in[3]
*109 chany_bottom_in[4]
*110 chany_bottom_in[5]
*111 chany_bottom_in[6]
*112 chany_bottom_in[7]
*113 chany_bottom_in[8]
*114 chany_bottom_in[9]
*115 chany_bottom_out[0]
*116 chany_bottom_out[10]
*117 chany_bottom_out[11]
*118 chany_bottom_out[12]
*119 chany_bottom_out[13]
*120 chany_bottom_out[14]
*121 chany_bottom_out[15]
*122 chany_bottom_out[16]
*123 chany_bottom_out[17]
*124 chany_bottom_out[18]
*125 chany_bottom_out[19]
*126 chany_bottom_out[1]
*127 chany_bottom_out[2]
*128 chany_bottom_out[3]
*129 chany_bottom_out[4]
*130 chany_bottom_out[5]
*131 chany_bottom_out[6]
*132 chany_bottom_out[7]
*133 chany_bottom_out[8]
*134 chany_bottom_out[9]
*135 chany_top_in[0]
*136 chany_top_in[10]
*137 chany_top_in[11]
*138 chany_top_in[12]
*139 chany_top_in[13]
*140 chany_top_in[14]
*141 chany_top_in[15]
*142 chany_top_in[16]
*143 chany_top_in[17]
*144 chany_top_in[18]
*145 chany_top_in[19]
*146 chany_top_in[1]
*147 chany_top_in[2]
*148 chany_top_in[3]
*149 chany_top_in[4]
*150 chany_top_in[5]
*151 chany_top_in[6]
*152 chany_top_in[7]
*153 chany_top_in[8]
*154 chany_top_in[9]
*155 chany_top_out[0]
*156 chany_top_out[10]
*157 chany_top_out[11]
*158 chany_top_out[12]
*159 chany_top_out[13]
*160 chany_top_out[14]
*161 chany_top_out[15]
*162 chany_top_out[16]
*163 chany_top_out[17]
*164 chany_top_out[18]
*165 chany_top_out[19]
*166 chany_top_out[1]
*167 chany_top_out[2]
*168 chany_top_out[3]
*169 chany_top_out[4]
*170 chany_top_out[5]
*171 chany_top_out[6]
*172 chany_top_out[7]
*173 chany_top_out[8]
*174 chany_top_out[9]
*175 clk_1_E_out
*176 clk_1_N_in
*177 clk_1_W_out
*178 clk_2_E_out
*179 clk_2_N_in
*180 clk_2_N_out
*181 clk_2_S_out
*182 clk_2_W_out
*183 clk_3_E_out
*184 clk_3_N_in
*185 clk_3_N_out
*186 clk_3_S_out
*187 clk_3_W_out
*188 left_bottom_grid_pin_34_
*189 left_bottom_grid_pin_35_
*190 left_bottom_grid_pin_36_
*191 left_bottom_grid_pin_37_
*192 left_bottom_grid_pin_38_
*193 left_bottom_grid_pin_39_
*194 left_bottom_grid_pin_40_
*195 left_bottom_grid_pin_41_
*196 prog_clk_0_N_in
*197 prog_clk_1_E_out
*198 prog_clk_1_N_in
*199 prog_clk_1_W_out
*200 prog_clk_2_E_out
*201 prog_clk_2_N_in
*202 prog_clk_2_N_out
*203 prog_clk_2_S_out
*204 prog_clk_2_W_out
*205 prog_clk_3_E_out
*206 prog_clk_3_N_in
*207 prog_clk_3_N_out
*208 prog_clk_3_S_out
*209 prog_clk_3_W_out
*210 right_bottom_grid_pin_34_
*211 right_bottom_grid_pin_35_
*212 right_bottom_grid_pin_36_
*213 right_bottom_grid_pin_37_
*214 right_bottom_grid_pin_38_
*215 right_bottom_grid_pin_39_
*216 right_bottom_grid_pin_40_
*217 right_bottom_grid_pin_41_
*218 top_left_grid_pin_42_
*219 top_left_grid_pin_43_
*220 top_left_grid_pin_44_
*221 top_left_grid_pin_45_
*222 top_left_grid_pin_46_
*223 top_left_grid_pin_47_
*224 top_left_grid_pin_48_
*225 top_left_grid_pin_49_
*226 _000_
*227 _001_
*228 _002_
*229 _003_
*230 _004_
*231 _005_
*232 _006_
*233 _007_
*234 _008_
*235 _009_
*236 _010_
*237 _011_
*238 _012_
*239 _013_
*240 _014_
*241 _015_
*242 _016_
*243 _017_
*244 _018_
*245 _019_
*246 _020_
*247 _021_
*248 _022_
*249 _023_
*250 _024_
*251 _025_
*252 _026_
*253 _027_
*254 mem_bottom_track_1\.ccff_head
*255 mem_bottom_track_1\.ccff_tail
*256 mem_bottom_track_1\.mem_out\[0\]
*257 mem_bottom_track_1\.mem_out\[1\]
*258 mem_bottom_track_1\.mem_out\[2\]
*259 mem_bottom_track_1\.prog_clk
*260 mem_bottom_track_17\.ccff_head
*261 mem_bottom_track_17\.ccff_tail
*262 mem_bottom_track_17\.mem_out\[0\]
*263 mem_bottom_track_17\.mem_out\[1\]
*264 mem_bottom_track_17\.mem_out\[2\]
*265 mem_bottom_track_25\.ccff_tail
*266 mem_bottom_track_25\.mem_out\[0\]
*267 mem_bottom_track_25\.mem_out\[1\]
*268 mem_bottom_track_25\.mem_out\[2\]
*269 mem_bottom_track_3\.ccff_tail
*270 mem_bottom_track_3\.mem_out\[0\]
*271 mem_bottom_track_3\.mem_out\[1\]
*272 mem_bottom_track_3\.mem_out\[2\]
*273 mem_bottom_track_33\.ccff_tail
*274 mem_bottom_track_33\.mem_out\[0\]
*275 mem_bottom_track_33\.mem_out\[1\]
*276 mem_bottom_track_5\.ccff_tail
*277 mem_bottom_track_5\.mem_out\[0\]
*278 mem_bottom_track_5\.mem_out\[1\]
*279 mem_bottom_track_5\.mem_out\[2\]
*280 mem_bottom_track_5\.mem_out\[3\]
*281 mem_bottom_track_9\.mem_out\[0\]
*282 mem_bottom_track_9\.mem_out\[1\]
*283 mem_bottom_track_9\.mem_out\[2\]
*284 mem_left_track_1\.ccff_tail
*285 mem_left_track_1\.mem_out\[0\]
*286 mem_left_track_1\.mem_out\[1\]
*287 mem_left_track_1\.mem_out\[2\]
*288 mem_left_track_17\.ccff_head
*289 mem_left_track_17\.ccff_tail
*290 mem_left_track_17\.mem_out\[0\]
*291 mem_left_track_17\.mem_out\[1\]
*292 mem_left_track_17\.mem_out\[2\]
*293 mem_left_track_25\.ccff_tail
*294 mem_left_track_25\.mem_out\[0\]
*295 mem_left_track_25\.mem_out\[1\]
*296 mem_left_track_25\.mem_out\[2\]
*297 mem_left_track_3\.ccff_tail
*298 mem_left_track_3\.mem_out\[0\]
*299 mem_left_track_3\.mem_out\[1\]
*300 mem_left_track_3\.mem_out\[2\]
*301 mem_left_track_33\.mem_out\[0\]
*302 mem_left_track_33\.mem_out\[1\]
*303 mem_left_track_5\.ccff_tail
*304 mem_left_track_5\.mem_out\[0\]
*305 mem_left_track_5\.mem_out\[1\]
*306 mem_left_track_5\.mem_out\[2\]
*307 mem_left_track_5\.mem_out\[3\]
*308 mem_left_track_9\.mem_out\[0\]
*309 mem_left_track_9\.mem_out\[1\]
*310 mem_left_track_9\.mem_out\[2\]
*311 mem_right_track_0\.ccff_head
*312 mem_right_track_0\.ccff_tail
*313 mem_right_track_0\.mem_out\[0\]
*314 mem_right_track_0\.mem_out\[1\]
*315 mem_right_track_0\.mem_out\[2\]
*316 mem_right_track_16\.ccff_head
*317 mem_right_track_16\.ccff_tail
*318 mem_right_track_16\.mem_out\[0\]
*319 mem_right_track_16\.mem_out\[1\]
*320 mem_right_track_16\.mem_out\[2\]
*321 mem_right_track_2\.ccff_tail
*322 mem_right_track_2\.mem_out\[0\]
*323 mem_right_track_2\.mem_out\[1\]
*324 mem_right_track_2\.mem_out\[2\]
*325 mem_right_track_24\.ccff_tail
*326 mem_right_track_24\.mem_out\[0\]
*327 mem_right_track_24\.mem_out\[1\]
*328 mem_right_track_24\.mem_out\[2\]
*329 mem_right_track_32\.mem_out\[0\]
*330 mem_right_track_32\.mem_out\[1\]
*331 mem_right_track_4\.ccff_tail
*332 mem_right_track_4\.mem_out\[0\]
*333 mem_right_track_4\.mem_out\[1\]
*334 mem_right_track_4\.mem_out\[2\]
*335 mem_right_track_4\.mem_out\[3\]
*336 mem_right_track_8\.mem_out\[0\]
*337 mem_right_track_8\.mem_out\[1\]
*338 mem_right_track_8\.mem_out\[2\]
*339 mem_top_track_0\.ccff_head
*340 mem_top_track_0\.ccff_tail
*341 mem_top_track_0\.mem_out\[0\]
*342 mem_top_track_0\.mem_out\[1\]
*343 mem_top_track_0\.mem_out\[2\]
*344 mem_top_track_16\.ccff_head
*345 mem_top_track_16\.ccff_tail
*346 mem_top_track_16\.mem_out\[0\]
*347 mem_top_track_16\.mem_out\[1\]
*348 mem_top_track_16\.mem_out\[2\]
*349 mem_top_track_2\.ccff_tail
*350 mem_top_track_2\.mem_out\[0\]
*351 mem_top_track_2\.mem_out\[1\]
*352 mem_top_track_2\.mem_out\[2\]
*353 mem_top_track_24\.ccff_tail
*354 mem_top_track_24\.mem_out\[0\]
*355 mem_top_track_24\.mem_out\[1\]
*356 mem_top_track_24\.mem_out\[2\]
*357 mem_top_track_32\.mem_out\[0\]
*358 mem_top_track_32\.mem_out\[1\]
*359 mem_top_track_4\.ccff_tail
*360 mem_top_track_4\.mem_out\[0\]
*361 mem_top_track_4\.mem_out\[1\]
*362 mem_top_track_4\.mem_out\[2\]
*363 mem_top_track_4\.mem_out\[3\]
*364 mem_top_track_8\.mem_out\[0\]
*365 mem_top_track_8\.mem_out\[1\]
*366 mem_top_track_8\.mem_out\[2\]
*367 mux_bottom_track_1\.out
*368 mux_bottom_track_1\.sky130_fd_sc_hd__mux2_1_0_X
*369 mux_bottom_track_1\.sky130_fd_sc_hd__mux2_1_10_X
*370 mux_bottom_track_1\.sky130_fd_sc_hd__mux2_1_11_X
*371 mux_bottom_track_1\.sky130_fd_sc_hd__mux2_1_1_X
*372 mux_bottom_track_1\.sky130_fd_sc_hd__mux2_1_2_X
*373 mux_bottom_track_1\.sky130_fd_sc_hd__mux2_1_3_X
*374 mux_bottom_track_1\.sky130_fd_sc_hd__mux2_1_4_X
*375 mux_bottom_track_1\.sky130_fd_sc_hd__mux2_1_5_X
*376 mux_bottom_track_1\.sky130_fd_sc_hd__mux2_1_6_X
*377 mux_bottom_track_1\.sky130_fd_sc_hd__mux2_1_7_X
*378 mux_bottom_track_1\.sky130_fd_sc_hd__mux2_1_8_X
*379 mux_bottom_track_1\.sky130_fd_sc_hd__mux2_1_9_X
*380 mux_bottom_track_17\.out
*381 mux_bottom_track_17\.sky130_fd_sc_hd__mux2_1_0_X
*382 mux_bottom_track_17\.sky130_fd_sc_hd__mux2_1_1_X
*383 mux_bottom_track_17\.sky130_fd_sc_hd__mux2_1_2_X
*384 mux_bottom_track_17\.sky130_fd_sc_hd__mux2_1_3_X
*385 mux_bottom_track_17\.sky130_fd_sc_hd__mux2_1_4_X
*386 mux_bottom_track_17\.sky130_fd_sc_hd__mux2_1_5_X
*387 mux_bottom_track_17\.sky130_fd_sc_hd__mux2_1_6_X
*388 mux_bottom_track_17\.sky130_fd_sc_hd__mux2_1_7_X
*389 mux_bottom_track_17\.sky130_fd_sc_hd__mux2_1_8_X
*390 mux_bottom_track_17\.sky130_fd_sc_hd__mux2_1_9_X
*391 mux_bottom_track_25\.out
*392 mux_bottom_track_25\.sky130_fd_sc_hd__mux2_1_0_X
*393 mux_bottom_track_25\.sky130_fd_sc_hd__mux2_1_1_X
*394 mux_bottom_track_25\.sky130_fd_sc_hd__mux2_1_2_X
*395 mux_bottom_track_25\.sky130_fd_sc_hd__mux2_1_3_X
*396 mux_bottom_track_25\.sky130_fd_sc_hd__mux2_1_4_X
*397 mux_bottom_track_25\.sky130_fd_sc_hd__mux2_1_5_X
*398 mux_bottom_track_25\.sky130_fd_sc_hd__mux2_1_6_X
*399 mux_bottom_track_25\.sky130_fd_sc_hd__mux2_1_7_X
*400 mux_bottom_track_25\.sky130_fd_sc_hd__mux2_1_8_X
*401 mux_bottom_track_25\.sky130_fd_sc_hd__mux2_1_9_X
*402 mux_bottom_track_3\.out
*403 mux_bottom_track_3\.sky130_fd_sc_hd__mux2_1_0_X
*404 mux_bottom_track_3\.sky130_fd_sc_hd__mux2_1_10_X
*405 mux_bottom_track_3\.sky130_fd_sc_hd__mux2_1_11_X
*406 mux_bottom_track_3\.sky130_fd_sc_hd__mux2_1_1_X
*407 mux_bottom_track_3\.sky130_fd_sc_hd__mux2_1_2_X
*408 mux_bottom_track_3\.sky130_fd_sc_hd__mux2_1_3_X
*409 mux_bottom_track_3\.sky130_fd_sc_hd__mux2_1_4_X
*410 mux_bottom_track_3\.sky130_fd_sc_hd__mux2_1_5_X
*411 mux_bottom_track_3\.sky130_fd_sc_hd__mux2_1_6_X
*412 mux_bottom_track_3\.sky130_fd_sc_hd__mux2_1_7_X
*413 mux_bottom_track_3\.sky130_fd_sc_hd__mux2_1_8_X
*414 mux_bottom_track_3\.sky130_fd_sc_hd__mux2_1_9_X
*415 mux_bottom_track_33\.out
*416 mux_bottom_track_33\.sky130_fd_sc_hd__mux2_1_0_X
*417 mux_bottom_track_33\.sky130_fd_sc_hd__mux2_1_1_X
*418 mux_bottom_track_33\.sky130_fd_sc_hd__mux2_1_2_X
*419 mux_bottom_track_33\.sky130_fd_sc_hd__mux2_1_3_X
*420 mux_bottom_track_33\.sky130_fd_sc_hd__mux2_1_4_X
*421 mux_bottom_track_33\.sky130_fd_sc_hd__mux2_1_5_X
*422 mux_bottom_track_33\.sky130_fd_sc_hd__mux2_1_6_X
*423 mux_bottom_track_5\.out
*424 mux_bottom_track_5\.sky130_fd_sc_hd__mux2_1_0_X
*425 mux_bottom_track_5\.sky130_fd_sc_hd__mux2_1_10_X
*426 mux_bottom_track_5\.sky130_fd_sc_hd__mux2_1_11_X
*427 mux_bottom_track_5\.sky130_fd_sc_hd__mux2_1_12_X
*428 mux_bottom_track_5\.sky130_fd_sc_hd__mux2_1_13_X
*429 mux_bottom_track_5\.sky130_fd_sc_hd__mux2_1_14_X
*430 mux_bottom_track_5\.sky130_fd_sc_hd__mux2_1_15_X
*431 mux_bottom_track_5\.sky130_fd_sc_hd__mux2_1_1_X
*432 mux_bottom_track_5\.sky130_fd_sc_hd__mux2_1_2_X
*433 mux_bottom_track_5\.sky130_fd_sc_hd__mux2_1_3_X
*434 mux_bottom_track_5\.sky130_fd_sc_hd__mux2_1_4_X
*435 mux_bottom_track_5\.sky130_fd_sc_hd__mux2_1_5_X
*436 mux_bottom_track_5\.sky130_fd_sc_hd__mux2_1_6_X
*437 mux_bottom_track_5\.sky130_fd_sc_hd__mux2_1_7_X
*438 mux_bottom_track_5\.sky130_fd_sc_hd__mux2_1_8_X
*439 mux_bottom_track_5\.sky130_fd_sc_hd__mux2_1_9_X
*440 mux_bottom_track_9\.out
*441 mux_bottom_track_9\.sky130_fd_sc_hd__mux2_1_0_X
*442 mux_bottom_track_9\.sky130_fd_sc_hd__mux2_1_1_X
*443 mux_bottom_track_9\.sky130_fd_sc_hd__mux2_1_2_X
*444 mux_bottom_track_9\.sky130_fd_sc_hd__mux2_1_3_X
*445 mux_bottom_track_9\.sky130_fd_sc_hd__mux2_1_4_X
*446 mux_bottom_track_9\.sky130_fd_sc_hd__mux2_1_5_X
*447 mux_bottom_track_9\.sky130_fd_sc_hd__mux2_1_6_X
*448 mux_bottom_track_9\.sky130_fd_sc_hd__mux2_1_7_X
*449 mux_bottom_track_9\.sky130_fd_sc_hd__mux2_1_8_X
*450 mux_bottom_track_9\.sky130_fd_sc_hd__mux2_1_9_X
*451 mux_left_track_1\.out
*452 mux_left_track_1\.sky130_fd_sc_hd__mux2_1_0_X
*453 mux_left_track_1\.sky130_fd_sc_hd__mux2_1_10_X
*454 mux_left_track_1\.sky130_fd_sc_hd__mux2_1_11_X
*455 mux_left_track_1\.sky130_fd_sc_hd__mux2_1_1_X
*456 mux_left_track_1\.sky130_fd_sc_hd__mux2_1_2_X
*457 mux_left_track_1\.sky130_fd_sc_hd__mux2_1_3_X
*458 mux_left_track_1\.sky130_fd_sc_hd__mux2_1_4_X
*459 mux_left_track_1\.sky130_fd_sc_hd__mux2_1_5_X
*460 mux_left_track_1\.sky130_fd_sc_hd__mux2_1_6_X
*461 mux_left_track_1\.sky130_fd_sc_hd__mux2_1_7_X
*462 mux_left_track_1\.sky130_fd_sc_hd__mux2_1_8_X
*463 mux_left_track_1\.sky130_fd_sc_hd__mux2_1_9_X
*464 mux_left_track_17\.out
*465 mux_left_track_17\.sky130_fd_sc_hd__mux2_1_0_X
*466 mux_left_track_17\.sky130_fd_sc_hd__mux2_1_1_X
*467 mux_left_track_17\.sky130_fd_sc_hd__mux2_1_2_X
*468 mux_left_track_17\.sky130_fd_sc_hd__mux2_1_3_X
*469 mux_left_track_17\.sky130_fd_sc_hd__mux2_1_4_X
*470 mux_left_track_17\.sky130_fd_sc_hd__mux2_1_5_X
*471 mux_left_track_17\.sky130_fd_sc_hd__mux2_1_6_X
*472 mux_left_track_17\.sky130_fd_sc_hd__mux2_1_7_X
*473 mux_left_track_17\.sky130_fd_sc_hd__mux2_1_8_X
*474 mux_left_track_17\.sky130_fd_sc_hd__mux2_1_9_X
*475 mux_left_track_25\.out
*476 mux_left_track_25\.sky130_fd_sc_hd__mux2_1_0_X
*477 mux_left_track_25\.sky130_fd_sc_hd__mux2_1_1_X
*478 mux_left_track_25\.sky130_fd_sc_hd__mux2_1_2_X
*479 mux_left_track_25\.sky130_fd_sc_hd__mux2_1_3_X
*480 mux_left_track_25\.sky130_fd_sc_hd__mux2_1_4_X
*481 mux_left_track_25\.sky130_fd_sc_hd__mux2_1_5_X
*482 mux_left_track_25\.sky130_fd_sc_hd__mux2_1_6_X
*483 mux_left_track_25\.sky130_fd_sc_hd__mux2_1_7_X
*484 mux_left_track_25\.sky130_fd_sc_hd__mux2_1_8_X
*485 mux_left_track_25\.sky130_fd_sc_hd__mux2_1_9_X
*486 mux_left_track_3\.out
*487 mux_left_track_3\.sky130_fd_sc_hd__mux2_1_0_X
*488 mux_left_track_3\.sky130_fd_sc_hd__mux2_1_10_X
*489 mux_left_track_3\.sky130_fd_sc_hd__mux2_1_11_X
*490 mux_left_track_3\.sky130_fd_sc_hd__mux2_1_1_X
*491 mux_left_track_3\.sky130_fd_sc_hd__mux2_1_2_X
*492 mux_left_track_3\.sky130_fd_sc_hd__mux2_1_3_X
*493 mux_left_track_3\.sky130_fd_sc_hd__mux2_1_4_X
*494 mux_left_track_3\.sky130_fd_sc_hd__mux2_1_5_X
*495 mux_left_track_3\.sky130_fd_sc_hd__mux2_1_6_X
*496 mux_left_track_3\.sky130_fd_sc_hd__mux2_1_7_X
*497 mux_left_track_3\.sky130_fd_sc_hd__mux2_1_8_X
*498 mux_left_track_3\.sky130_fd_sc_hd__mux2_1_9_X
*499 mux_left_track_33\.out
*500 mux_left_track_33\.sky130_fd_sc_hd__mux2_1_0_X
*501 mux_left_track_33\.sky130_fd_sc_hd__mux2_1_1_X
*502 mux_left_track_33\.sky130_fd_sc_hd__mux2_1_2_X
*503 mux_left_track_33\.sky130_fd_sc_hd__mux2_1_3_X
*504 mux_left_track_33\.sky130_fd_sc_hd__mux2_1_4_X
*505 mux_left_track_33\.sky130_fd_sc_hd__mux2_1_5_X
*506 mux_left_track_33\.sky130_fd_sc_hd__mux2_1_6_X
*507 mux_left_track_5\.out
*508 mux_left_track_5\.sky130_fd_sc_hd__mux2_1_0_X
*509 mux_left_track_5\.sky130_fd_sc_hd__mux2_1_10_X
*510 mux_left_track_5\.sky130_fd_sc_hd__mux2_1_11_X
*511 mux_left_track_5\.sky130_fd_sc_hd__mux2_1_12_X
*512 mux_left_track_5\.sky130_fd_sc_hd__mux2_1_13_X
*513 mux_left_track_5\.sky130_fd_sc_hd__mux2_1_14_X
*514 mux_left_track_5\.sky130_fd_sc_hd__mux2_1_15_X
*515 mux_left_track_5\.sky130_fd_sc_hd__mux2_1_1_X
*516 mux_left_track_5\.sky130_fd_sc_hd__mux2_1_2_X
*517 mux_left_track_5\.sky130_fd_sc_hd__mux2_1_3_X
*518 mux_left_track_5\.sky130_fd_sc_hd__mux2_1_4_X
*519 mux_left_track_5\.sky130_fd_sc_hd__mux2_1_5_X
*520 mux_left_track_5\.sky130_fd_sc_hd__mux2_1_6_X
*521 mux_left_track_5\.sky130_fd_sc_hd__mux2_1_7_X
*522 mux_left_track_5\.sky130_fd_sc_hd__mux2_1_8_X
*523 mux_left_track_5\.sky130_fd_sc_hd__mux2_1_9_X
*524 mux_left_track_9\.out
*525 mux_left_track_9\.sky130_fd_sc_hd__mux2_1_0_X
*526 mux_left_track_9\.sky130_fd_sc_hd__mux2_1_1_X
*527 mux_left_track_9\.sky130_fd_sc_hd__mux2_1_2_X
*528 mux_left_track_9\.sky130_fd_sc_hd__mux2_1_3_X
*529 mux_left_track_9\.sky130_fd_sc_hd__mux2_1_4_X
*530 mux_left_track_9\.sky130_fd_sc_hd__mux2_1_5_X
*531 mux_left_track_9\.sky130_fd_sc_hd__mux2_1_6_X
*532 mux_left_track_9\.sky130_fd_sc_hd__mux2_1_7_X
*533 mux_left_track_9\.sky130_fd_sc_hd__mux2_1_8_X
*534 mux_left_track_9\.sky130_fd_sc_hd__mux2_1_9_X
*535 mux_right_track_0\.out
*536 mux_right_track_0\.sky130_fd_sc_hd__mux2_1_0_X
*537 mux_right_track_0\.sky130_fd_sc_hd__mux2_1_10_X
*538 mux_right_track_0\.sky130_fd_sc_hd__mux2_1_11_X
*539 mux_right_track_0\.sky130_fd_sc_hd__mux2_1_1_X
*540 mux_right_track_0\.sky130_fd_sc_hd__mux2_1_2_X
*541 mux_right_track_0\.sky130_fd_sc_hd__mux2_1_3_X
*542 mux_right_track_0\.sky130_fd_sc_hd__mux2_1_4_X
*543 mux_right_track_0\.sky130_fd_sc_hd__mux2_1_5_X
*544 mux_right_track_0\.sky130_fd_sc_hd__mux2_1_6_X
*545 mux_right_track_0\.sky130_fd_sc_hd__mux2_1_7_X
*546 mux_right_track_0\.sky130_fd_sc_hd__mux2_1_8_X
*547 mux_right_track_0\.sky130_fd_sc_hd__mux2_1_9_X
*548 mux_right_track_16\.out
*549 mux_right_track_16\.sky130_fd_sc_hd__mux2_1_0_X
*550 mux_right_track_16\.sky130_fd_sc_hd__mux2_1_1_X
*551 mux_right_track_16\.sky130_fd_sc_hd__mux2_1_2_X
*552 mux_right_track_16\.sky130_fd_sc_hd__mux2_1_3_X
*553 mux_right_track_16\.sky130_fd_sc_hd__mux2_1_4_X
*554 mux_right_track_16\.sky130_fd_sc_hd__mux2_1_5_X
*555 mux_right_track_16\.sky130_fd_sc_hd__mux2_1_6_X
*556 mux_right_track_16\.sky130_fd_sc_hd__mux2_1_7_X
*557 mux_right_track_16\.sky130_fd_sc_hd__mux2_1_8_X
*558 mux_right_track_16\.sky130_fd_sc_hd__mux2_1_9_X
*559 mux_right_track_2\.out
*560 mux_right_track_2\.sky130_fd_sc_hd__mux2_1_0_X
*561 mux_right_track_2\.sky130_fd_sc_hd__mux2_1_10_X
*562 mux_right_track_2\.sky130_fd_sc_hd__mux2_1_11_X
*563 mux_right_track_2\.sky130_fd_sc_hd__mux2_1_1_X
*564 mux_right_track_2\.sky130_fd_sc_hd__mux2_1_2_X
*565 mux_right_track_2\.sky130_fd_sc_hd__mux2_1_3_X
*566 mux_right_track_2\.sky130_fd_sc_hd__mux2_1_4_X
*567 mux_right_track_2\.sky130_fd_sc_hd__mux2_1_5_X
*568 mux_right_track_2\.sky130_fd_sc_hd__mux2_1_6_X
*569 mux_right_track_2\.sky130_fd_sc_hd__mux2_1_7_X
*570 mux_right_track_2\.sky130_fd_sc_hd__mux2_1_8_X
*571 mux_right_track_2\.sky130_fd_sc_hd__mux2_1_9_X
*572 mux_right_track_24\.out
*573 mux_right_track_24\.sky130_fd_sc_hd__mux2_1_0_X
*574 mux_right_track_24\.sky130_fd_sc_hd__mux2_1_1_X
*575 mux_right_track_24\.sky130_fd_sc_hd__mux2_1_2_X
*576 mux_right_track_24\.sky130_fd_sc_hd__mux2_1_3_X
*577 mux_right_track_24\.sky130_fd_sc_hd__mux2_1_4_X
*578 mux_right_track_24\.sky130_fd_sc_hd__mux2_1_5_X
*579 mux_right_track_24\.sky130_fd_sc_hd__mux2_1_6_X
*580 mux_right_track_24\.sky130_fd_sc_hd__mux2_1_7_X
*581 mux_right_track_24\.sky130_fd_sc_hd__mux2_1_8_X
*582 mux_right_track_24\.sky130_fd_sc_hd__mux2_1_9_X
*583 mux_right_track_32\.out
*584 mux_right_track_32\.sky130_fd_sc_hd__mux2_1_0_X
*585 mux_right_track_32\.sky130_fd_sc_hd__mux2_1_1_X
*586 mux_right_track_32\.sky130_fd_sc_hd__mux2_1_2_X
*587 mux_right_track_32\.sky130_fd_sc_hd__mux2_1_3_X
*588 mux_right_track_32\.sky130_fd_sc_hd__mux2_1_4_X
*589 mux_right_track_32\.sky130_fd_sc_hd__mux2_1_5_X
*590 mux_right_track_32\.sky130_fd_sc_hd__mux2_1_6_X
*591 mux_right_track_4\.out
*592 mux_right_track_4\.sky130_fd_sc_hd__mux2_1_0_X
*593 mux_right_track_4\.sky130_fd_sc_hd__mux2_1_10_X
*594 mux_right_track_4\.sky130_fd_sc_hd__mux2_1_11_X
*595 mux_right_track_4\.sky130_fd_sc_hd__mux2_1_12_X
*596 mux_right_track_4\.sky130_fd_sc_hd__mux2_1_13_X
*597 mux_right_track_4\.sky130_fd_sc_hd__mux2_1_14_X
*598 mux_right_track_4\.sky130_fd_sc_hd__mux2_1_15_X
*599 mux_right_track_4\.sky130_fd_sc_hd__mux2_1_1_X
*600 mux_right_track_4\.sky130_fd_sc_hd__mux2_1_2_X
*601 mux_right_track_4\.sky130_fd_sc_hd__mux2_1_3_X
*602 mux_right_track_4\.sky130_fd_sc_hd__mux2_1_4_X
*603 mux_right_track_4\.sky130_fd_sc_hd__mux2_1_5_X
*604 mux_right_track_4\.sky130_fd_sc_hd__mux2_1_6_X
*605 mux_right_track_4\.sky130_fd_sc_hd__mux2_1_7_X
*606 mux_right_track_4\.sky130_fd_sc_hd__mux2_1_8_X
*607 mux_right_track_4\.sky130_fd_sc_hd__mux2_1_9_X
*608 mux_right_track_8\.out
*609 mux_right_track_8\.sky130_fd_sc_hd__mux2_1_0_X
*610 mux_right_track_8\.sky130_fd_sc_hd__mux2_1_1_X
*611 mux_right_track_8\.sky130_fd_sc_hd__mux2_1_2_X
*612 mux_right_track_8\.sky130_fd_sc_hd__mux2_1_3_X
*613 mux_right_track_8\.sky130_fd_sc_hd__mux2_1_4_X
*614 mux_right_track_8\.sky130_fd_sc_hd__mux2_1_5_X
*615 mux_right_track_8\.sky130_fd_sc_hd__mux2_1_6_X
*616 mux_right_track_8\.sky130_fd_sc_hd__mux2_1_7_X
*617 mux_right_track_8\.sky130_fd_sc_hd__mux2_1_8_X
*618 mux_right_track_8\.sky130_fd_sc_hd__mux2_1_9_X
*619 mux_top_track_0\.out
*620 mux_top_track_0\.sky130_fd_sc_hd__mux2_1_0_X
*621 mux_top_track_0\.sky130_fd_sc_hd__mux2_1_10_X
*622 mux_top_track_0\.sky130_fd_sc_hd__mux2_1_11_X
*623 mux_top_track_0\.sky130_fd_sc_hd__mux2_1_1_X
*624 mux_top_track_0\.sky130_fd_sc_hd__mux2_1_2_X
*625 mux_top_track_0\.sky130_fd_sc_hd__mux2_1_3_X
*626 mux_top_track_0\.sky130_fd_sc_hd__mux2_1_4_X
*627 mux_top_track_0\.sky130_fd_sc_hd__mux2_1_5_X
*628 mux_top_track_0\.sky130_fd_sc_hd__mux2_1_6_X
*629 mux_top_track_0\.sky130_fd_sc_hd__mux2_1_7_X
*630 mux_top_track_0\.sky130_fd_sc_hd__mux2_1_8_X
*631 mux_top_track_0\.sky130_fd_sc_hd__mux2_1_9_X
*632 mux_top_track_16\.out
*633 mux_top_track_16\.sky130_fd_sc_hd__mux2_1_0_X
*634 mux_top_track_16\.sky130_fd_sc_hd__mux2_1_1_X
*635 mux_top_track_16\.sky130_fd_sc_hd__mux2_1_2_X
*636 mux_top_track_16\.sky130_fd_sc_hd__mux2_1_3_X
*637 mux_top_track_16\.sky130_fd_sc_hd__mux2_1_4_X
*638 mux_top_track_16\.sky130_fd_sc_hd__mux2_1_5_X
*639 mux_top_track_16\.sky130_fd_sc_hd__mux2_1_6_X
*640 mux_top_track_16\.sky130_fd_sc_hd__mux2_1_7_X
*641 mux_top_track_16\.sky130_fd_sc_hd__mux2_1_8_X
*642 mux_top_track_16\.sky130_fd_sc_hd__mux2_1_9_X
*643 mux_top_track_2\.out
*644 mux_top_track_2\.sky130_fd_sc_hd__mux2_1_0_X
*645 mux_top_track_2\.sky130_fd_sc_hd__mux2_1_10_X
*646 mux_top_track_2\.sky130_fd_sc_hd__mux2_1_11_X
*647 mux_top_track_2\.sky130_fd_sc_hd__mux2_1_1_X
*648 mux_top_track_2\.sky130_fd_sc_hd__mux2_1_2_X
*649 mux_top_track_2\.sky130_fd_sc_hd__mux2_1_3_X
*650 mux_top_track_2\.sky130_fd_sc_hd__mux2_1_4_X
*651 mux_top_track_2\.sky130_fd_sc_hd__mux2_1_5_X
*652 mux_top_track_2\.sky130_fd_sc_hd__mux2_1_6_X
*653 mux_top_track_2\.sky130_fd_sc_hd__mux2_1_7_X
*654 mux_top_track_2\.sky130_fd_sc_hd__mux2_1_8_X
*655 mux_top_track_2\.sky130_fd_sc_hd__mux2_1_9_X
*656 mux_top_track_24\.out
*657 mux_top_track_24\.sky130_fd_sc_hd__mux2_1_0_X
*658 mux_top_track_24\.sky130_fd_sc_hd__mux2_1_1_X
*659 mux_top_track_24\.sky130_fd_sc_hd__mux2_1_2_X
*660 mux_top_track_24\.sky130_fd_sc_hd__mux2_1_3_X
*661 mux_top_track_24\.sky130_fd_sc_hd__mux2_1_4_X
*662 mux_top_track_24\.sky130_fd_sc_hd__mux2_1_5_X
*663 mux_top_track_24\.sky130_fd_sc_hd__mux2_1_6_X
*664 mux_top_track_24\.sky130_fd_sc_hd__mux2_1_7_X
*665 mux_top_track_24\.sky130_fd_sc_hd__mux2_1_8_X
*666 mux_top_track_24\.sky130_fd_sc_hd__mux2_1_9_X
*667 mux_top_track_32\.out
*668 mux_top_track_32\.sky130_fd_sc_hd__mux2_1_0_X
*669 mux_top_track_32\.sky130_fd_sc_hd__mux2_1_1_X
*670 mux_top_track_32\.sky130_fd_sc_hd__mux2_1_2_X
*671 mux_top_track_32\.sky130_fd_sc_hd__mux2_1_3_X
*672 mux_top_track_32\.sky130_fd_sc_hd__mux2_1_4_X
*673 mux_top_track_32\.sky130_fd_sc_hd__mux2_1_5_X
*674 mux_top_track_32\.sky130_fd_sc_hd__mux2_1_6_X
*675 mux_top_track_4\.out
*676 mux_top_track_4\.sky130_fd_sc_hd__mux2_1_0_X
*677 mux_top_track_4\.sky130_fd_sc_hd__mux2_1_10_X
*678 mux_top_track_4\.sky130_fd_sc_hd__mux2_1_11_X
*679 mux_top_track_4\.sky130_fd_sc_hd__mux2_1_12_X
*680 mux_top_track_4\.sky130_fd_sc_hd__mux2_1_13_X
*681 mux_top_track_4\.sky130_fd_sc_hd__mux2_1_14_X
*682 mux_top_track_4\.sky130_fd_sc_hd__mux2_1_15_X
*683 mux_top_track_4\.sky130_fd_sc_hd__mux2_1_1_X
*684 mux_top_track_4\.sky130_fd_sc_hd__mux2_1_2_X
*685 mux_top_track_4\.sky130_fd_sc_hd__mux2_1_3_X
*686 mux_top_track_4\.sky130_fd_sc_hd__mux2_1_4_X
*687 mux_top_track_4\.sky130_fd_sc_hd__mux2_1_5_X
*688 mux_top_track_4\.sky130_fd_sc_hd__mux2_1_6_X
*689 mux_top_track_4\.sky130_fd_sc_hd__mux2_1_7_X
*690 mux_top_track_4\.sky130_fd_sc_hd__mux2_1_8_X
*691 mux_top_track_4\.sky130_fd_sc_hd__mux2_1_9_X
*692 mux_top_track_8\.out
*693 mux_top_track_8\.sky130_fd_sc_hd__mux2_1_0_X
*694 mux_top_track_8\.sky130_fd_sc_hd__mux2_1_1_X
*695 mux_top_track_8\.sky130_fd_sc_hd__mux2_1_2_X
*696 mux_top_track_8\.sky130_fd_sc_hd__mux2_1_3_X
*697 mux_top_track_8\.sky130_fd_sc_hd__mux2_1_4_X
*698 mux_top_track_8\.sky130_fd_sc_hd__mux2_1_5_X
*699 mux_top_track_8\.sky130_fd_sc_hd__mux2_1_6_X
*700 mux_top_track_8\.sky130_fd_sc_hd__mux2_1_7_X
*701 mux_top_track_8\.sky130_fd_sc_hd__mux2_1_8_X
*702 mux_top_track_8\.sky130_fd_sc_hd__mux2_1_9_X
*703 ANTENNA_Test_en_N_FTB01_A
*704 ANTENNA__059__A
*705 ANTENNA__061__A
*706 ANTENNA__062__A
*707 ANTENNA__063__A
*708 ANTENNA__065__A
*709 ANTENNA__066__A
*710 ANTENNA__067__A
*711 ANTENNA__069__A
*712 ANTENNA__070__A
*713 ANTENNA__071__A
*714 ANTENNA__073__A
*715 ANTENNA__074__A
*716 ANTENNA__075__A
*717 ANTENNA__079__A
*718 ANTENNA__081__A
*719 ANTENNA__082__A
*720 ANTENNA__083__A
*721 ANTENNA__085__A
*722 ANTENNA__086__A
*723 ANTENNA__087__A
*724 ANTENNA__089__A
*725 ANTENNA__090__A
*726 ANTENNA__091__A
*727 ANTENNA__093__A
*728 ANTENNA__094__A
*729 ANTENNA__095__A
*730 ANTENNA__099__A
*731 ANTENNA__101__A
*732 ANTENNA__102__A
*733 ANTENNA__103__A
*734 ANTENNA__105__A
*735 ANTENNA__106__A
*736 ANTENNA__107__A
*737 ANTENNA__109__A
*738 ANTENNA__110__A
*739 ANTENNA__111__A
*740 ANTENNA__113__A
*741 ANTENNA__114__A
*742 ANTENNA__115__A
*743 ANTENNA__119__A
*744 ANTENNA__121__A
*745 ANTENNA__122__A
*746 ANTENNA__123__A
*747 ANTENNA__125__A
*748 ANTENNA__126__A
*749 ANTENNA__127__A
*750 ANTENNA__129__A
*751 ANTENNA__130__A
*752 ANTENNA__131__A
*753 ANTENNA__133__A
*754 ANTENNA__134__A
*755 ANTENNA__135__A
*756 ANTENNA_clk_1_E_FTB01_A
*757 ANTENNA_clk_1_W_FTB01_A
*758 ANTENNA_clk_2_E_FTB01_A
*759 ANTENNA_clk_2_N_FTB01_A
*760 ANTENNA_clk_2_S_FTB01_A
*761 ANTENNA_clk_2_W_FTB01_A
*762 ANTENNA_clk_3_E_FTB01_A
*763 ANTENNA_clk_3_N_FTB01_A
*764 ANTENNA_clk_3_S_FTB01_A
*765 ANTENNA_clk_3_W_FTB01_A
*766 ANTENNA_delay_buf_A
*767 ANTENNA_mem_bottom_track_1\.sky130_fd_sc_hd__dfxtp_1_0__CLK
*768 ANTENNA_mem_bottom_track_1\.sky130_fd_sc_hd__dfxtp_1_1__CLK
*769 ANTENNA_mem_bottom_track_1\.sky130_fd_sc_hd__dfxtp_1_2__CLK
*770 ANTENNA_mem_bottom_track_1\.sky130_fd_sc_hd__dfxtp_1_3__CLK
*771 ANTENNA_mem_bottom_track_17\.sky130_fd_sc_hd__dfxtp_1_0__CLK
*772 ANTENNA_mem_bottom_track_17\.sky130_fd_sc_hd__dfxtp_1_1__CLK
*773 ANTENNA_mem_bottom_track_17\.sky130_fd_sc_hd__dfxtp_1_2__CLK
*774 ANTENNA_mem_bottom_track_17\.sky130_fd_sc_hd__dfxtp_1_3__CLK
*775 ANTENNA_mem_bottom_track_25\.sky130_fd_sc_hd__dfxtp_1_0__CLK
*776 ANTENNA_mem_bottom_track_25\.sky130_fd_sc_hd__dfxtp_1_1__CLK
*777 ANTENNA_mem_bottom_track_25\.sky130_fd_sc_hd__dfxtp_1_2__CLK
*778 ANTENNA_mem_bottom_track_25\.sky130_fd_sc_hd__dfxtp_1_3__CLK
*779 ANTENNA_mem_bottom_track_3\.sky130_fd_sc_hd__dfxtp_1_0__CLK
*780 ANTENNA_mem_bottom_track_3\.sky130_fd_sc_hd__dfxtp_1_1__CLK
*781 ANTENNA_mem_bottom_track_3\.sky130_fd_sc_hd__dfxtp_1_2__CLK
*782 ANTENNA_mem_bottom_track_3\.sky130_fd_sc_hd__dfxtp_1_3__CLK
*783 ANTENNA_mem_bottom_track_33\.sky130_fd_sc_hd__dfxtp_1_0__CLK
*784 ANTENNA_mem_bottom_track_33\.sky130_fd_sc_hd__dfxtp_1_1__CLK
*785 ANTENNA_mem_bottom_track_33\.sky130_fd_sc_hd__dfxtp_1_2__CLK
*786 ANTENNA_mem_bottom_track_5\.sky130_fd_sc_hd__dfxtp_1_0__CLK
*787 ANTENNA_mem_bottom_track_5\.sky130_fd_sc_hd__dfxtp_1_1__CLK
*788 ANTENNA_mem_bottom_track_5\.sky130_fd_sc_hd__dfxtp_1_2__CLK
*789 ANTENNA_mem_bottom_track_5\.sky130_fd_sc_hd__dfxtp_1_3__CLK
*790 ANTENNA_mem_bottom_track_5\.sky130_fd_sc_hd__dfxtp_1_4__CLK
*791 ANTENNA_mem_bottom_track_9\.sky130_fd_sc_hd__dfxtp_1_0__CLK
*792 ANTENNA_mem_bottom_track_9\.sky130_fd_sc_hd__dfxtp_1_1__CLK
*793 ANTENNA_mem_bottom_track_9\.sky130_fd_sc_hd__dfxtp_1_2__CLK
*794 ANTENNA_mem_bottom_track_9\.sky130_fd_sc_hd__dfxtp_1_3__CLK