*SPEF "ieee 1481-1999"
*DESIGN "sb_2__1_"
*DATE "11:11:11 Fri 11 11, 1111"
*VENDOR "OpenRCX"
*PROGRAM "Parallel Extraction"
*VERSION "1.0"
*DESIGN_FLOW "NAME_SCOPE LOCAL" "PIN_CAP NONE"
*DIVIDER /
*DELIMITER :
*BUS_DELIMITER []
*T_UNIT 1 NS
*C_UNIT 1 PF
*R_UNIT 1 OHM
*L_UNIT 1 HENRY

*NAME_MAP
*3 bottom_left_grid_pin_42_
*4 bottom_left_grid_pin_43_
*5 bottom_left_grid_pin_44_
*6 bottom_left_grid_pin_45_
*7 bottom_left_grid_pin_46_
*8 bottom_left_grid_pin_47_
*9 bottom_left_grid_pin_48_
*10 bottom_left_grid_pin_49_
*11 bottom_right_grid_pin_1_
*12 ccff_head
*13 ccff_tail
*14 chanx_left_in[0]
*15 chanx_left_in[10]
*16 chanx_left_in[11]
*17 chanx_left_in[12]
*18 chanx_left_in[13]
*19 chanx_left_in[14]
*20 chanx_left_in[15]
*21 chanx_left_in[16]
*22 chanx_left_in[17]
*23 chanx_left_in[18]
*24 chanx_left_in[19]
*25 chanx_left_in[1]
*26 chanx_left_in[2]
*27 chanx_left_in[3]
*28 chanx_left_in[4]
*29 chanx_left_in[5]
*30 chanx_left_in[6]
*31 chanx_left_in[7]
*32 chanx_left_in[8]
*33 chanx_left_in[9]
*34 chanx_left_out[0]
*35 chanx_left_out[10]
*36 chanx_left_out[11]
*37 chanx_left_out[12]
*38 chanx_left_out[13]
*39 chanx_left_out[14]
*40 chanx_left_out[15]
*41 chanx_left_out[16]
*42 chanx_left_out[17]
*43 chanx_left_out[18]
*44 chanx_left_out[19]
*45 chanx_left_out[1]
*46 chanx_left_out[2]
*47 chanx_left_out[3]
*48 chanx_left_out[4]
*49 chanx_left_out[5]
*50 chanx_left_out[6]
*51 chanx_left_out[7]
*52 chanx_left_out[8]
*53 chanx_left_out[9]
*54 chany_bottom_in[0]
*55 chany_bottom_in[10]
*56 chany_bottom_in[11]
*57 chany_bottom_in[12]
*58 chany_bottom_in[13]
*59 chany_bottom_in[14]
*60 chany_bottom_in[15]
*61 chany_bottom_in[16]
*62 chany_bottom_in[17]
*63 chany_bottom_in[18]
*64 chany_bottom_in[19]
*65 chany_bottom_in[1]
*66 chany_bottom_in[2]
*67 chany_bottom_in[3]
*68 chany_bottom_in[4]
*69 chany_bottom_in[5]
*70 chany_bottom_in[6]
*71 chany_bottom_in[7]
*72 chany_bottom_in[8]
*73 chany_bottom_in[9]
*74 chany_bottom_out[0]
*75 chany_bottom_out[10]
*76 chany_bottom_out[11]
*77 chany_bottom_out[12]
*78 chany_bottom_out[13]
*79 chany_bottom_out[14]
*80 chany_bottom_out[15]
*81 chany_bottom_out[16]
*82 chany_bottom_out[17]
*83 chany_bottom_out[18]
*84 chany_bottom_out[19]
*85 chany_bottom_out[1]
*86 chany_bottom_out[2]
*87 chany_bottom_out[3]
*88 chany_bottom_out[4]
*89 chany_bottom_out[5]
*90 chany_bottom_out[6]
*91 chany_bottom_out[7]
*92 chany_bottom_out[8]
*93 chany_bottom_out[9]
*94 chany_top_in[0]
*95 chany_top_in[10]
*96 chany_top_in[11]
*97 chany_top_in[12]
*98 chany_top_in[13]
*99 chany_top_in[14]
*100 chany_top_in[15]
*101 chany_top_in[16]
*102 chany_top_in[17]
*103 chany_top_in[18]
*104 chany_top_in[19]
*105 chany_top_in[1]
*106 chany_top_in[2]
*107 chany_top_in[3]
*108 chany_top_in[4]
*109 chany_top_in[5]
*110 chany_top_in[6]
*111 chany_top_in[7]
*112 chany_top_in[8]
*113 chany_top_in[9]
*114 chany_top_out[0]
*115 chany_top_out[10]
*116 chany_top_out[11]
*117 chany_top_out[12]
*118 chany_top_out[13]
*119 chany_top_out[14]
*120 chany_top_out[15]
*121 chany_top_out[16]
*122 chany_top_out[17]
*123 chany_top_out[18]
*124 chany_top_out[19]
*125 chany_top_out[1]
*126 chany_top_out[2]
*127 chany_top_out[3]
*128 chany_top_out[4]
*129 chany_top_out[5]
*130 chany_top_out[6]
*131 chany_top_out[7]
*132 chany_top_out[8]
*133 chany_top_out[9]
*134 left_bottom_grid_pin_34_
*135 left_bottom_grid_pin_35_
*136 left_bottom_grid_pin_36_
*137 left_bottom_grid_pin_37_
*138 left_bottom_grid_pin_38_
*139 left_bottom_grid_pin_39_
*140 left_bottom_grid_pin_40_
*141 left_bottom_grid_pin_41_
*142 prog_clk_0_N_in
*143 top_left_grid_pin_42_
*144 top_left_grid_pin_43_
*145 top_left_grid_pin_44_
*146 top_left_grid_pin_45_
*147 top_left_grid_pin_46_
*148 top_left_grid_pin_47_
*149 top_left_grid_pin_48_
*150 top_left_grid_pin_49_
*151 top_right_grid_pin_1_
*152 _000_
*153 _001_
*154 _002_
*155 _003_
*156 _004_
*157 _005_
*158 _006_
*159 _007_
*160 _008_
*161 _009_
*162 _010_
*163 _011_
*164 _012_
*165 _013_
*166 _014_
*167 _015_
*168 _016_
*169 _017_
*170 _018_
*171 _019_
*172 _020_
*173 _021_
*174 _022_
*175 _023_
*176 _024_
*177 _025_
*178 _026_
*179 _027_
*180 _028_
*181 _029_
*182 _030_
*183 _031_
*184 _032_
*185 mem_bottom_track_1\.ccff_head
*186 mem_bottom_track_1\.ccff_tail
*187 mem_bottom_track_1\.mem_out\[0\]
*188 mem_bottom_track_1\.mem_out\[1\]
*189 mem_bottom_track_1\.mem_out\[2\]
*190 mem_bottom_track_1\.prog_clk
*191 mem_bottom_track_17\.ccff_head
*192 mem_bottom_track_17\.ccff_tail
*193 mem_bottom_track_17\.mem_out\[0\]
*194 mem_bottom_track_17\.mem_out\[1\]
*195 mem_bottom_track_25\.ccff_tail
*196 mem_bottom_track_25\.mem_out\[0\]
*197 mem_bottom_track_25\.mem_out\[1\]
*198 mem_bottom_track_3\.ccff_tail
*199 mem_bottom_track_3\.mem_out\[0\]
*200 mem_bottom_track_3\.mem_out\[1\]
*201 mem_bottom_track_3\.mem_out\[2\]
*202 mem_bottom_track_33\.ccff_tail
*203 mem_bottom_track_33\.mem_out\[0\]
*204 mem_bottom_track_33\.mem_out\[1\]
*205 mem_bottom_track_5\.ccff_tail
*206 mem_bottom_track_5\.mem_out\[0\]
*207 mem_bottom_track_5\.mem_out\[1\]
*208 mem_bottom_track_5\.mem_out\[2\]
*209 mem_bottom_track_9\.mem_out\[0\]
*210 mem_bottom_track_9\.mem_out\[1\]
*211 mem_bottom_track_9\.mem_out\[2\]
*212 mem_left_track_1\.ccff_tail
*213 mem_left_track_1\.mem_out\[0\]
*214 mem_left_track_1\.mem_out\[1\]
*215 mem_left_track_11\.ccff_head
*216 mem_left_track_11\.ccff_tail
*217 mem_left_track_11\.mem_out\[0\]
*218 mem_left_track_11\.mem_out\[1\]
*219 mem_left_track_13\.ccff_tail
*220 mem_left_track_13\.mem_out\[0\]
*221 mem_left_track_13\.mem_out\[1\]
*222 mem_left_track_15\.ccff_tail
*223 mem_left_track_15\.mem_out\[0\]
*224 mem_left_track_15\.mem_out\[1\]
*225 mem_left_track_17\.ccff_tail
*226 mem_left_track_17\.mem_out\[0\]
*227 mem_left_track_19\.ccff_tail
*228 mem_left_track_19\.mem_out\[0\]
*229 mem_left_track_21\.ccff_tail
*230 mem_left_track_21\.mem_out\[0\]
*231 mem_left_track_23\.ccff_tail
*232 mem_left_track_23\.mem_out\[0\]
*233 mem_left_track_25\.ccff_tail
*234 mem_left_track_25\.mem_out\[0\]
*235 mem_left_track_29\.ccff_tail
*236 mem_left_track_29\.mem_out\[0\]
*237 mem_left_track_3\.ccff_tail
*238 mem_left_track_3\.mem_out\[0\]
*239 mem_left_track_3\.mem_out\[1\]
*240 mem_left_track_31\.ccff_tail
*241 mem_left_track_31\.mem_out\[0\]
*242 mem_left_track_33\.ccff_tail
*243 mem_left_track_33\.mem_out\[0\]
*244 mem_left_track_35\.ccff_tail
*245 mem_left_track_35\.mem_out\[0\]
*246 mem_left_track_37\.ccff_tail
*247 mem_left_track_37\.mem_out\[0\]
*248 mem_left_track_39\.mem_out\[0\]
*249 mem_left_track_5\.ccff_tail
*250 mem_left_track_5\.mem_out\[0\]
*251 mem_left_track_5\.mem_out\[1\]
*252 mem_left_track_7\.ccff_tail
*253 mem_left_track_7\.mem_out\[0\]
*254 mem_left_track_7\.mem_out\[1\]
*255 mem_left_track_9\.mem_out\[0\]
*256 mem_left_track_9\.mem_out\[1\]
*257 mem_top_track_0\.ccff_tail
*258 mem_top_track_0\.mem_out\[0\]
*259 mem_top_track_0\.mem_out\[1\]
*260 mem_top_track_0\.mem_out\[2\]
*261 mem_top_track_16\.ccff_head
*262 mem_top_track_16\.ccff_tail
*263 mem_top_track_16\.mem_out\[0\]
*264 mem_top_track_16\.mem_out\[1\]
*265 mem_top_track_2\.ccff_tail
*266 mem_top_track_2\.mem_out\[0\]
*267 mem_top_track_2\.mem_out\[1\]
*268 mem_top_track_2\.mem_out\[2\]
*269 mem_top_track_24\.ccff_tail
*270 mem_top_track_24\.mem_out\[0\]
*271 mem_top_track_24\.mem_out\[1\]
*272 mem_top_track_32\.mem_out\[0\]
*273 mem_top_track_32\.mem_out\[1\]
*274 mem_top_track_4\.ccff_tail
*275 mem_top_track_4\.mem_out\[0\]
*276 mem_top_track_4\.mem_out\[1\]
*277 mem_top_track_4\.mem_out\[2\]
*278 mem_top_track_8\.mem_out\[0\]
*279 mem_top_track_8\.mem_out\[1\]
*280 mem_top_track_8\.mem_out\[2\]
*281 mux_bottom_track_1\.out
*282 mux_bottom_track_1\.sky130_fd_sc_hd__mux2_1_0_X
*283 mux_bottom_track_1\.sky130_fd_sc_hd__mux2_1_1_X
*284 mux_bottom_track_1\.sky130_fd_sc_hd__mux2_1_2_X
*285 mux_bottom_track_1\.sky130_fd_sc_hd__mux2_1_3_X
*286 mux_bottom_track_1\.sky130_fd_sc_hd__mux2_1_4_X
*287 mux_bottom_track_1\.sky130_fd_sc_hd__mux2_1_5_X
*288 mux_bottom_track_1\.sky130_fd_sc_hd__mux2_1_6_X
*289 mux_bottom_track_1\.sky130_fd_sc_hd__mux2_1_7_X
*290 mux_bottom_track_1\.sky130_fd_sc_hd__mux2_1_8_X
*291 mux_bottom_track_1\.sky130_fd_sc_hd__mux2_1_9_X
*292 mux_bottom_track_17\.out
*293 mux_bottom_track_17\.sky130_fd_sc_hd__mux2_1_0_X
*294 mux_bottom_track_17\.sky130_fd_sc_hd__mux2_1_1_X
*295 mux_bottom_track_17\.sky130_fd_sc_hd__mux2_1_2_X
*296 mux_bottom_track_17\.sky130_fd_sc_hd__mux2_1_3_X
*297 mux_bottom_track_17\.sky130_fd_sc_hd__mux2_1_4_X
*298 mux_bottom_track_17\.sky130_fd_sc_hd__mux2_1_5_X
*299 mux_bottom_track_17\.sky130_fd_sc_hd__mux2_1_6_X
*300 mux_bottom_track_25\.out
*301 mux_bottom_track_25\.sky130_fd_sc_hd__mux2_1_0_X
*302 mux_bottom_track_25\.sky130_fd_sc_hd__mux2_1_1_X
*303 mux_bottom_track_25\.sky130_fd_sc_hd__mux2_1_2_X
*304 mux_bottom_track_25\.sky130_fd_sc_hd__mux2_1_3_X
*305 mux_bottom_track_25\.sky130_fd_sc_hd__mux2_1_4_X
*306 mux_bottom_track_25\.sky130_fd_sc_hd__mux2_1_5_X
*307 mux_bottom_track_3\.out
*308 mux_bottom_track_3\.sky130_fd_sc_hd__mux2_1_0_X
*309 mux_bottom_track_3\.sky130_fd_sc_hd__mux2_1_1_X
*310 mux_bottom_track_3\.sky130_fd_sc_hd__mux2_1_2_X
*311 mux_bottom_track_3\.sky130_fd_sc_hd__mux2_1_3_X
*312 mux_bottom_track_3\.sky130_fd_sc_hd__mux2_1_4_X
*313 mux_bottom_track_3\.sky130_fd_sc_hd__mux2_1_5_X
*314 mux_bottom_track_3\.sky130_fd_sc_hd__mux2_1_6_X
*315 mux_bottom_track_3\.sky130_fd_sc_hd__mux2_1_7_X
*316 mux_bottom_track_3\.sky130_fd_sc_hd__mux2_1_8_X
*317 mux_bottom_track_33\.out
*318 mux_bottom_track_33\.sky130_fd_sc_hd__mux2_1_0_X
*319 mux_bottom_track_33\.sky130_fd_sc_hd__mux2_1_1_X
*320 mux_bottom_track_33\.sky130_fd_sc_hd__mux2_1_2_X
*321 mux_bottom_track_33\.sky130_fd_sc_hd__mux2_1_3_X
*322 mux_bottom_track_33\.sky130_fd_sc_hd__mux2_1_4_X
*323 mux_bottom_track_33\.sky130_fd_sc_hd__mux2_1_5_X
*324 mux_bottom_track_5\.out
*325 mux_bottom_track_5\.sky130_fd_sc_hd__mux2_1_0_X
*326 mux_bottom_track_5\.sky130_fd_sc_hd__mux2_1_10_X
*327 mux_bottom_track_5\.sky130_fd_sc_hd__mux2_1_11_X
*328 mux_bottom_track_5\.sky130_fd_sc_hd__mux2_1_12_X
*329 mux_bottom_track_5\.sky130_fd_sc_hd__mux2_1_13_X
*330 mux_bottom_track_5\.sky130_fd_sc_hd__mux2_1_1_X
*331 mux_bottom_track_5\.sky130_fd_sc_hd__mux2_1_2_X
*332 mux_bottom_track_5\.sky130_fd_sc_hd__mux2_1_3_X
*333 mux_bottom_track_5\.sky130_fd_sc_hd__mux2_1_4_X
*334 mux_bottom_track_5\.sky130_fd_sc_hd__mux2_1_5_X
*335 mux_bottom_track_5\.sky130_fd_sc_hd__mux2_1_6_X
*336 mux_bottom_track_5\.sky130_fd_sc_hd__mux2_1_7_X
*337 mux_bottom_track_5\.sky130_fd_sc_hd__mux2_1_8_X
*338 mux_bottom_track_5\.sky130_fd_sc_hd__mux2_1_9_X
*339 mux_bottom_track_9\.out
*340 mux_bottom_track_9\.sky130_fd_sc_hd__mux2_1_0_X
*341 mux_bottom_track_9\.sky130_fd_sc_hd__mux2_1_1_X
*342 mux_bottom_track_9\.sky130_fd_sc_hd__mux2_1_2_X
*343 mux_bottom_track_9\.sky130_fd_sc_hd__mux2_1_3_X
*344 mux_bottom_track_9\.sky130_fd_sc_hd__mux2_1_4_X
*345 mux_bottom_track_9\.sky130_fd_sc_hd__mux2_1_5_X
*346 mux_bottom_track_9\.sky130_fd_sc_hd__mux2_1_6_X
*347 mux_bottom_track_9\.sky130_fd_sc_hd__mux2_1_7_X
*348 mux_left_track_1\.out
*349 mux_left_track_1\.sky130_fd_sc_hd__mux2_1_0_X
*350 mux_left_track_1\.sky130_fd_sc_hd__mux2_1_1_X
*351 mux_left_track_1\.sky130_fd_sc_hd__mux2_1_2_X
*352 mux_left_track_1\.sky130_fd_sc_hd__mux2_1_3_X
*353 mux_left_track_1\.sky130_fd_sc_hd__mux2_1_4_X
*354 mux_left_track_1\.sky130_fd_sc_hd__mux2_1_5_X
*355 mux_left_track_1\.sky130_fd_sc_hd__mux2_1_6_X
*356 mux_left_track_11\.out
*357 mux_left_track_11\.sky130_fd_sc_hd__mux2_1_0_X
*358 mux_left_track_11\.sky130_fd_sc_hd__mux2_1_1_X
*359 mux_left_track_11\.sky130_fd_sc_hd__mux2_1_2_X
*360 mux_left_track_11\.sky130_fd_sc_hd__mux2_1_3_X
*361 mux_left_track_13\.out
*362 mux_left_track_13\.sky130_fd_sc_hd__mux2_1_0_X
*363 mux_left_track_13\.sky130_fd_sc_hd__mux2_1_1_X
*364 mux_left_track_13\.sky130_fd_sc_hd__mux2_1_2_X
*365 mux_left_track_13\.sky130_fd_sc_hd__mux2_1_3_X
*366 mux_left_track_15\.out
*367 mux_left_track_15\.sky130_fd_sc_hd__mux2_1_0_X
*368 mux_left_track_15\.sky130_fd_sc_hd__mux2_1_1_X
*369 mux_left_track_15\.sky130_fd_sc_hd__mux2_1_2_X
*370 mux_left_track_15\.sky130_fd_sc_hd__mux2_1_3_X
*371 mux_left_track_17\.out
*372 mux_left_track_17\.sky130_fd_sc_hd__mux2_1_0_X
*373 mux_left_track_17\.sky130_fd_sc_hd__mux2_1_1_X
*374 mux_left_track_17\.sky130_fd_sc_hd__mux2_1_2_X
*375 mux_left_track_19\.out
*376 mux_left_track_19\.sky130_fd_sc_hd__mux2_1_0_X
*377 mux_left_track_19\.sky130_fd_sc_hd__mux2_1_1_X
*378 mux_left_track_19\.sky130_fd_sc_hd__mux2_1_2_X
*379 mux_left_track_21\.out
*380 mux_left_track_21\.sky130_fd_sc_hd__mux2_1_0_X
*381 mux_left_track_21\.sky130_fd_sc_hd__mux2_1_1_X
*382 mux_left_track_21\.sky130_fd_sc_hd__mux2_1_2_X
*383 mux_left_track_23\.out
*384 mux_left_track_23\.sky130_fd_sc_hd__mux2_1_0_X
*385 mux_left_track_23\.sky130_fd_sc_hd__mux2_1_1_X
*386 mux_left_track_23\.sky130_fd_sc_hd__mux2_1_2_X
*387 mux_left_track_25\.out
*388 mux_left_track_25\.sky130_fd_sc_hd__mux2_1_0_X
*389 mux_left_track_25\.sky130_fd_sc_hd__mux2_1_1_X
*390 mux_left_track_25\.sky130_fd_sc_hd__mux2_1_2_X
*391 mux_left_track_29\.out
*392 mux_left_track_29\.sky130_fd_sc_hd__mux2_1_0_X
*393 mux_left_track_29\.sky130_fd_sc_hd__mux2_1_1_X
*394 mux_left_track_3\.out
*395 mux_left_track_3\.sky130_fd_sc_hd__mux2_1_0_X
*396 mux_left_track_3\.sky130_fd_sc_hd__mux2_1_1_X
*397 mux_left_track_3\.sky130_fd_sc_hd__mux2_1_2_X
*398 mux_left_track_3\.sky130_fd_sc_hd__mux2_1_3_X
*399 mux_left_track_3\.sky130_fd_sc_hd__mux2_1_4_X
*400 mux_left_track_3\.sky130_fd_sc_hd__mux2_1_5_X
*401 mux_left_track_3\.sky130_fd_sc_hd__mux2_1_6_X
*402 mux_left_track_31\.out
*403 mux_left_track_31\.sky130_fd_sc_hd__mux2_1_0_X
*404 mux_left_track_31\.sky130_fd_sc_hd__mux2_1_1_X
*405 mux_left_track_33\.out
*406 mux_left_track_33\.sky130_fd_sc_hd__mux2_1_0_X
*407 mux_left_track_33\.sky130_fd_sc_hd__mux2_1_1_X
*408 mux_left_track_35\.out
*409 mux_left_track_35\.sky130_fd_sc_hd__mux2_1_0_X
*410 mux_left_track_35\.sky130_fd_sc_hd__mux2_1_1_X
*411 mux_left_track_37\.out
*412 mux_left_track_37\.sky130_fd_sc_hd__mux2_1_0_X
*413 mux_left_track_37\.sky130_fd_sc_hd__mux2_1_1_X
*414 mux_left_track_39\.out
*415 mux_left_track_39\.sky130_fd_sc_hd__mux2_1_0_X
*416 mux_left_track_39\.sky130_fd_sc_hd__mux2_1_1_X
*417 mux_left_track_5\.out
*418 mux_left_track_5\.sky130_fd_sc_hd__mux2_1_0_X
*419 mux_left_track_5\.sky130_fd_sc_hd__mux2_1_1_X
*420 mux_left_track_5\.sky130_fd_sc_hd__mux2_1_2_X
*421 mux_left_track_5\.sky130_fd_sc_hd__mux2_1_3_X
*422 mux_left_track_5\.sky130_fd_sc_hd__mux2_1_4_X
*423 mux_left_track_5\.sky130_fd_sc_hd__mux2_1_5_X
*424 mux_left_track_5\.sky130_fd_sc_hd__mux2_1_6_X
*425 mux_left_track_7\.out
*426 mux_left_track_7\.sky130_fd_sc_hd__mux2_1_0_X
*427 mux_left_track_7\.sky130_fd_sc_hd__mux2_1_1_X
*428 mux_left_track_7\.sky130_fd_sc_hd__mux2_1_2_X
*429 mux_left_track_7\.sky130_fd_sc_hd__mux2_1_3_X
*430 mux_left_track_7\.sky130_fd_sc_hd__mux2_1_4_X
*431 mux_left_track_7\.sky130_fd_sc_hd__mux2_1_5_X
*432 mux_left_track_7\.sky130_fd_sc_hd__mux2_1_6_X
*433 mux_left_track_9\.out
*434 mux_left_track_9\.sky130_fd_sc_hd__mux2_1_0_X
*435 mux_left_track_9\.sky130_fd_sc_hd__mux2_1_1_X
*436 mux_left_track_9\.sky130_fd_sc_hd__mux2_1_2_X
*437 mux_left_track_9\.sky130_fd_sc_hd__mux2_1_3_X
*438 mux_top_track_0\.out
*439 mux_top_track_0\.sky130_fd_sc_hd__mux2_1_0_X
*440 mux_top_track_0\.sky130_fd_sc_hd__mux2_1_1_X
*441 mux_top_track_0\.sky130_fd_sc_hd__mux2_1_2_X
*442 mux_top_track_0\.sky130_fd_sc_hd__mux2_1_3_X
*443 mux_top_track_0\.sky130_fd_sc_hd__mux2_1_4_X
*444 mux_top_track_0\.sky130_fd_sc_hd__mux2_1_5_X
*445 mux_top_track_0\.sky130_fd_sc_hd__mux2_1_6_X
*446 mux_top_track_0\.sky130_fd_sc_hd__mux2_1_7_X
*447 mux_top_track_0\.sky130_fd_sc_hd__mux2_1_8_X
*448 mux_top_track_0\.sky130_fd_sc_hd__mux2_1_9_X
*449 mux_top_track_16\.out
*450 mux_top_track_16\.sky130_fd_sc_hd__mux2_1_0_X
*451 mux_top_track_16\.sky130_fd_sc_hd__mux2_1_1_X
*452 mux_top_track_16\.sky130_fd_sc_hd__mux2_1_2_X
*453 mux_top_track_16\.sky130_fd_sc_hd__mux2_1_3_X
*454 mux_top_track_16\.sky130_fd_sc_hd__mux2_1_4_X
*455 mux_top_track_16\.sky130_fd_sc_hd__mux2_1_5_X
*456 mux_top_track_16\.sky130_fd_sc_hd__mux2_1_6_X
*457 mux_top_track_2\.out
*458 mux_top_track_2\.sky130_fd_sc_hd__mux2_1_0_X
*459 mux_top_track_2\.sky130_fd_sc_hd__mux2_1_1_X
*460 mux_top_track_2\.sky130_fd_sc_hd__mux2_1_2_X
*461 mux_top_track_2\.sky130_fd_sc_hd__mux2_1_3_X
*462 mux_top_track_2\.sky130_fd_sc_hd__mux2_1_4_X
*463 mux_top_track_2\.sky130_fd_sc_hd__mux2_1_5_X
*464 mux_top_track_2\.sky130_fd_sc_hd__mux2_1_6_X
*465 mux_top_track_2\.sky130_fd_sc_hd__mux2_1_7_X
*466 mux_top_track_24\.out
*467 mux_top_track_24\.sky130_fd_sc_hd__mux2_1_0_X
*468 mux_top_track_24\.sky130_fd_sc_hd__mux2_1_1_X
*469 mux_top_track_24\.sky130_fd_sc_hd__mux2_1_2_X
*470 mux_top_track_24\.sky130_fd_sc_hd__mux2_1_3_X
*471 mux_top_track_24\.sky130_fd_sc_hd__mux2_1_4_X
*472 mux_top_track_24\.sky130_fd_sc_hd__mux2_1_5_X
*473 mux_top_track_24\.sky130_fd_sc_hd__mux2_1_6_X
*474 mux_top_track_32\.out
*475 mux_top_track_32\.sky130_fd_sc_hd__mux2_1_0_X
*476 mux_top_track_32\.sky130_fd_sc_hd__mux2_1_1_X
*477 mux_top_track_32\.sky130_fd_sc_hd__mux2_1_2_X
*478 mux_top_track_32\.sky130_fd_sc_hd__mux2_1_3_X
*479 mux_top_track_32\.sky130_fd_sc_hd__mux2_1_4_X
*480 mux_top_track_32\.sky130_fd_sc_hd__mux2_1_5_X
*481 mux_top_track_4\.out
*482 mux_top_track_4\.sky130_fd_sc_hd__mux2_1_0_X
*483 mux_top_track_4\.sky130_fd_sc_hd__mux2_1_10_X
*484 mux_top_track_4\.sky130_fd_sc_hd__mux2_1_11_X
*485 mux_top_track_4\.sky130_fd_sc_hd__mux2_1_12_X
*486 mux_top_track_4\.sky130_fd_sc_hd__mux2_1_13_X
*487 mux_top_track_4\.sky130_fd_sc_hd__mux2_1_1_X
*488 mux_top_track_4\.sky130_fd_sc_hd__mux2_1_2_X
*489 mux_top_track_4\.sky130_fd_sc_hd__mux2_1_3_X
*490 mux_top_track_4\.sky130_fd_sc_hd__mux2_1_4_X
*491 mux_top_track_4\.sky130_fd_sc_hd__mux2_1_5_X
*492 mux_top_track_4\.sky130_fd_sc_hd__mux2_1_6_X
*493 mux_top_track_4\.sky130_fd_sc_hd__mux2_1_7_X
*494 mux_top_track_4\.sky130_fd_sc_hd__mux2_1_8_X
*495 mux_top_track_4\.sky130_fd_sc_hd__mux2_1_9_X
*496 mux_top_track_8\.out
*497 mux_top_track_8\.sky130_fd_sc_hd__mux2_1_0_X
*498 mux_top_track_8\.sky130_fd_sc_hd__mux2_1_1_X
*499 mux_top_track_8\.sky130_fd_sc_hd__mux2_1_2_X
*500 mux_top_track_8\.sky130_fd_sc_hd__mux2_1_3_X
*501 mux_top_track_8\.sky130_fd_sc_hd__mux2_1_4_X
*502 mux_top_track_8\.sky130_fd_sc_hd__mux2_1_5_X
*503 mux_top_track_8\.sky130_fd_sc_hd__mux2_1_6_X
*504 mux_top_track_8\.sky130_fd_sc_hd__mux2_1_7_X
*505 ANTENNA__079__A
*506 ANTENNA__089__A
*507 ANTENNA__091__A
*508 ANTENNA__092__A
*509 ANTENNA__093__A
*510 ANTENNA__095__A
*511 ANTENNA__096__A
*512 ANTENNA__097__A
*513 ANTENNA__099__A
*514 ANTENNA__100__A
*515 ANTENNA__101__A
*516 ANTENNA__103__A
*517 ANTENNA__104__A
*518 ANTENNA__105__A
*519 ANTENNA__109__A
*520 ANTENNA__111__A
*521 ANTENNA__112__A
*522 ANTENNA__113__A
*523 ANTENNA__115__A
*524 ANTENNA__116__A
*525 ANTENNA__117__A
*526 ANTENNA__119__A
*527 ANTENNA__120__A
*528 ANTENNA__121__A
*529 ANTENNA__123__A
*530 ANTENNA__124__A
*531 ANTENNA__125__A
*532 ANTENNA_mem_bottom_track_1\.sky130_fd_sc_hd__dfxtp_1_0__CLK
*533 ANTENNA_mem_bottom_track_1\.sky130_fd_sc_hd__dfxtp_1_1__CLK
*534 ANTENNA_mem_bottom_track_1\.sky130_fd_sc_hd__dfxtp_1_1__D
*535 ANTENNA_mem_bottom_track_1\.sky130_fd_sc_hd__dfxtp_1_2__CLK
*536 ANTENNA_mem_bottom_track_1\.sky130_fd_sc_hd__dfxtp_1_3__CLK
*537 ANTENNA_mem_bottom_track_17\.sky130_fd_sc_hd__dfxtp_1_0__CLK
*538 ANTENNA_mem_bottom_track_17\.sky130_fd_sc_hd__dfxtp_1_1__CLK
*539 ANTENNA_mem_bottom_track_17\.sky130_fd_sc_hd__dfxtp_1_1__D
*540 ANTENNA_mem_bottom_track_17\.sky130_fd_sc_hd__dfxtp_1_2__CLK
*541 ANTENNA_mem_bottom_track_25\.sky130_fd_sc_hd__dfxtp_1_0__CLK
*542 ANTENNA_mem_bottom_track_25\.sky130_fd_sc_hd__dfxtp_1_1__CLK
*543 ANTENNA_mem_bottom_track_25\.sky130_fd_sc_hd__dfxtp_1_2__CLK
*544 ANTENNA_mem_bottom_track_3\.sky130_fd_sc_hd__dfxtp_1_0__CLK
*545 ANTENNA_mem_bottom_track_3\.sky130_fd_sc_hd__dfxtp_1_1__CLK
*546 ANTENNA_mem_bottom_track_3\.sky130_fd_sc_hd__dfxtp_1_2__CLK
*547 ANTENNA_mem_bottom_track_3\.sky130_fd_sc_hd__dfxtp_1_3__CLK
*548 ANTENNA_mem_bottom_track_33\.sky130_fd_sc_hd__dfxtp_1_0__CLK
*549 ANTENNA_mem_bottom_track_33\.sky130_fd_sc_hd__dfxtp_1_1__CLK
*550 ANTENNA_mem_bottom_track_33\.sky130_fd_sc_hd__dfxtp_1_1__D
*551 ANTENNA_mem_bottom_track_33\.sky130_fd_sc_hd__dfxtp_1_2__CLK
*552 ANTENNA_mem_bottom_track_5\.sky130_fd_sc_hd__dfxtp_1_0__CLK
*553 ANTENNA_mem_bottom_track_5\.sky130_fd_sc_hd__dfxtp_1_1__CLK
*554 ANTENNA_mem_bottom_track_5\.sky130_fd_sc_hd__dfxtp_1_1__D
*555 ANTENNA_mem_bottom_track_5\.sky130_fd_sc_hd__dfxtp_1_2__CLK
*556 ANTENNA_mem_bottom_track_5\.sky130_fd_sc_hd__dfxtp_1_3__CLK
*557 ANTENNA_mem_bottom_track_9\.sky130_fd_sc_hd__dfxtp_1_0__CLK
*558 ANTENNA_mem_bottom_track_9\.sky130_fd_sc_hd__dfxtp_1_1__CLK
*559 ANTENNA_mem_bottom_track_9\.sky130_fd_sc_hd__dfxtp_1_2__CLK
*560 ANTENNA_mem_bottom_track_9\.sky130_fd_sc_hd__dfxtp_1_2__D
*561 ANTENNA_mem_bottom_track_9\.sky130_fd_sc_hd__dfxtp_1_3__CLK
*562 ANTENNA_mem_left_track_1\.sky130_fd_sc_hd__dfxtp_1_0__CLK
*563 ANTENNA_mem_left_track_1\.sky130_fd_sc_hd__dfxtp_1_1__CLK
*564 ANTENNA_mem_left_track_1\.sky130_fd_sc_hd__dfxtp_1_1__D
*565 ANTENNA_mem_left_track_1\.sky130_fd_sc_hd__dfxtp_1_2__CLK
*566 ANTENNA_mem_left_track_11\.sky130_fd_sc_hd__dfxtp_1_0__CLK
*567 ANTENNA_mem_left_track_11\.sky130_fd_sc_hd__dfxtp_1_1__CLK
*568 ANTENNA_mem_left_track_11\.sky130_fd_sc_hd__dfxtp_1_2__CLK
*569 ANTENNA_mem_left_track_13\.sky130_fd_sc_hd__dfxtp_1_0__CLK
*570 ANTENNA_mem_left_track_13\.sky130_fd_sc_hd__dfxtp_1_1__CLK
*571 ANTENNA_mem_left_track_13\.sky130_fd_sc_hd__dfxtp_1_2__CLK
*572 ANTENNA_mem_left_track_15\.sky130_fd_sc_hd__dfxtp_1_0__CLK
*573 ANTENNA_mem_left_track_15\.sky130_fd_sc_hd__dfxtp_1_1__CLK
*574 ANTENNA_mem_left_track_15\.sky130_fd_sc_hd__dfxtp_1_2__CLK
*575 ANTENNA_mem_left_track_17\.sky130_fd_sc_hd__dfxtp_1_0__CLK
*576 ANTENNA_mem_left_track_17\.sky130_fd_sc_hd__dfxtp_1_1__CLK
*577 ANTENNA_mem_left_track_19\.sky130_fd_sc_hd__dfxtp_1_0__CLK
*578 ANTENNA_mem_left_track_19\.sky130_fd_sc_hd__dfxtp_1_1__CLK
*579 ANTENNA_mem_left_track_21\.sky130_fd_sc_hd__dfxtp_1_0__CLK
*580 ANTENNA_mem_left_track_21\.sky130_fd_sc_hd__dfxtp_1_1__CLK
*581 ANTENNA_mem_left_track_23\.sky130_fd_sc_hd__dfxtp_1_0__CLK
*582 ANTENNA_mem_left_track_23\.sky130_fd_sc_hd__dfxtp_1_1__CLK
*583 ANTENNA_mem_left_track_25\.sky130_fd_sc_hd__dfxtp_1_0__CLK
*584 ANTENNA_mem_left_track_25\.sky130_fd_sc_hd__dfxtp_1_1__CLK
*585 ANTENNA_mem_left_track_29\.sky130_fd_sc_hd__dfxtp_1_0__CLK
*586 ANTENNA_mem_left_track_29\.sky130_fd_sc_hd__dfxtp_1_1__CLK
*587 ANTENNA_mem_left_track_3\.sky130_fd_sc_hd__dfxtp_1_0__CLK
*588 ANTENNA_mem_left_track_3\.sky130_fd_sc_hd__dfxtp_1_1__CLK
*589 ANTENNA_mem_left_track_3\.sky130_fd_sc_hd__dfxtp_1_1__D
*590 ANTENNA_mem_left_track_3\.sky130_fd_sc_hd__dfxtp_1_2__CLK
*591 ANTENNA_mem_left_track_31\.sky130_fd_sc_hd__dfxtp_1_0__CLK
*592 ANTENNA_mem_left_track_31\.sky130_fd_sc_hd__dfxtp_1_1__CLK
*593 ANTENNA_mem_left_track_33\.sky130_fd_sc_hd__dfxtp_1_0__CLK
*594 ANTENNA_mem_left_track_33\.sky130_fd_sc_hd__dfxtp_1_1__CLK
*595 ANTENNA_mem_left_track_35\.sky130_fd_sc_hd__dfxtp_1_0__CLK
*596 ANTENNA_mem_left_track_35\.sky130_fd_sc_hd__dfxtp_1_1__CLK
*597 ANTENNA_mem_left_track_37\.sky130_fd_sc_hd__dfxtp_1_0__CLK
*598 ANTENNA_mem_left_track_37\.sky130_fd_sc_hd__dfxtp_1_1__CLK
*599 ANTENNA_mem_left_track_39\.sky130_fd_sc_hd__dfxtp_1_0__CLK
*600 ANTENNA_mem_left_track_39\.sky130_fd_sc_hd__dfxtp_1_1__CLK
*601 ANTENNA_mem_left_track_5\.sky130_fd_sc_hd__dfxtp_1_0__CLK
*602 ANTENNA_mem_left_track_5\.sky130_fd_sc_hd__dfxtp_1_1__CLK
*603 ANTENNA_mem_left_track_5\.sky130_fd_sc_hd__dfxtp_1_2__CLK
*604 ANTENNA_mem_left_track_7\.sky130_fd_sc_hd__dfxtp_1_0__CLK
*605 ANTENNA_mem_left_track_7\.sky130_fd_sc_hd__dfxtp_1_1__CLK
*606 ANTENNA_mem_left_track_7\.sky130_fd_sc_hd__dfxtp_1_2__CLK
*607 ANTENNA_mem_left_track_9\.sky130_fd_sc_hd__dfxtp_1_0__CLK
*608 ANTENNA_mem_left_track_9\.sky130_fd_sc_hd__dfxtp_1_1__CLK
*609 ANTENNA_mem_left_track_9\.sky130_fd_sc_hd__dfxtp_1_2__CLK
*610 ANTENNA_mem_top_track_0\.sky130_fd_sc_hd__dfxtp_1_0__CLK
*611 ANTENNA_mem_top_track_0\.sky130_fd_sc_hd__dfxtp_1_0__D
*612 ANTENNA_mem_top_track_0\.sky130_fd_sc_hd__dfxtp_1_1__CLK
*613 ANTENNA_mem_top_track_0\.sky130_fd_sc_hd__dfxtp_1_2__CLK
*614 ANTENNA_mem_top_track_0\.sky130_fd_sc_hd__dfxtp_1_2__D
*615 ANTENNA_mem_top_track_0\.sky130_fd_sc_hd__dfxtp_1_3__CLK
*616 ANTENNA_mem_top_track_16\.sky130_fd_sc_hd__dfxtp_1_0__CLK
*617 ANTENNA_mem_top_track_16\.sky130_fd_sc_hd__dfxtp_1_1__CLK
*618 ANTENNA_mem_top_track_16\.sky130_fd_sc_hd__dfxtp_1_1__D
*619 ANTENNA_mem_top_track_16\.sky130_fd_sc_hd__dfxtp_1_2__CLK
*620 ANTENNA_mem_top_track_2\.sky130_fd_sc_hd__dfxtp_1_0__CLK
*621 ANTENNA_mem_top_track_2\.sky130_fd_sc_hd__dfxtp_1_1__CLK
*622 ANTENNA_mem_top_track_2\.sky130_fd_sc_hd__dfxtp_1_2__CLK
*623 ANTENNA_mem_top_track_2\.sky130_fd_sc_hd__dfxtp_1_3__CLK
*624 ANTENNA_mem_top_track_24\.sky130_fd_sc_hd__dfxtp_1_0__CLK
*625 ANTENNA_mem_top_track_24\.sky130_fd_sc_hd__dfxtp_1_1__CLK
*626 ANTENNA_mem_top_track_24\.sky130_fd_sc_hd__dfxtp_1_1__D
*627 ANTENNA_mem_top_track_24\.sky130_fd_sc_hd__dfxtp_1_2__CLK
*628 ANTENNA_mem_top_track_32\.sky130_fd_sc_hd__dfxtp_1_0__CLK
*629 ANTENNA_mem_top_track_32\.sky130_fd_sc_hd__dfxtp_1_1__CLK
*630 ANTENNA_mem_top_track_32\.sky130_fd_sc_hd__dfxtp_1_2__CLK
*631 ANTENNA_mem_top_track_4\.sky130_fd_sc_hd__dfxtp_1_0__CLK
*632 ANTENNA_mem_top_track_4\.sky130_fd_sc_hd__dfxtp_1_1__CLK
*633 ANTENNA_mem_top_track_4\.sky130_fd_sc_hd__dfxtp_1_1__D
*634 ANTENNA_mem_top_track_4\.sky130_fd_sc_hd__dfxtp_1_2__CLK
*635 ANTENNA_mem_top_track_4\.sky130_fd_sc_hd__dfxtp_1_3__CLK
*636 ANTENNA_mem_top_track_8\.sky130_fd_sc_hd__dfxtp_1_0__CLK
*637 ANTENNA_mem_top_track_8\.sky130_fd_sc_hd__dfxtp_1_1__CLK
*638 ANTENNA_mem_top_track_8\.sky130_fd_sc_hd__dfxtp_1_2__CLK
*639 ANTENNA_mem_top_track_8\.sky130_fd_sc_hd__dfxtp_1_2__D
*640 ANTENNA_mem_top_track_8\.sky130_fd_sc_hd__dfxtp_1_3__CLK
*641 ANTENNA_mux_bottom_track_1\.mux_l1_in_0__A0
*642 ANTENNA_mux_bottom_track_1\.mux_l1_in_0__A1
*643 ANTENNA_mux_bottom_track_1\.mux_l1_in_0__S
*644 ANTENNA_mux_bottom_track_1\.mux_l1_in_1__A0
*645 ANTENNA_mux_bottom_track_1\.mux_l1_in_1__A1
*646 ANTENNA_mux_bottom_track_1\.mux_l1_in_1__S
*647 ANTENNA_mux_bottom_track_1\.mux_l1_in_2__A0
*648 ANTENNA_mux_bottom_track_1\.mux_l1_in_2__A1
*649 ANTENNA_mux_bottom_track_1\.mux_l1_in_2__S
*650 ANTENNA_mux_bottom_track_1\.mux_l2_in_1__A0
*651 ANTENNA_mux_bottom_track_1\.mux_l2_in_2__A0
*652 ANTENNA_mux_bottom_track_1\.mux_l2_in_2__A1
*653 ANTENNA_mux_bottom_track_1\.mux_l2_in_3__A1
*654 ANTENNA_mux_bottom_track_17\.mux_l1_in_0__A0
*655 ANTENNA_mux_bottom_track_17\.mux_l1_in_0__A1
*656 ANTENNA_mux_bottom_track_17\.mux_l1_in_0__S
*657 ANTENNA_mux_bottom_track_17\.mux_l1_in_1__A0
*658 ANTENNA_mux_bottom_track_17\.mux_l1_in_1__A1
*659 ANTENNA_mux_bottom_track_17\.mux_l1_in_1__S
*660 ANTENNA_mux_bottom_track_17\.mux_l1_in_2__A0
*661 ANTENNA_mux_bottom_track_17\.mux_l1_in_2__A1
*662 ANTENNA_mux_bottom_track_17\.mux_l1_in_2__S
*663 ANTENNA_mux_bottom_track_17\.mux_l1_in_3__A1
*664 ANTENNA_mux_bottom_track_17\.mux_l1_in_3__S
*665 ANTENNA_mux_bottom_track_25\.mux_l1_in_0__A0
*666 ANTENNA_mux_bottom_track_25\.mux_l1_in_0__A1
*667 ANTENNA_mux_bottom_track_25\.mux_l1_in_1__A0
*668 ANTENNA_mux_bottom_track_25\.mux_l1_in_1__A1
*669 ANTENNA_mux_bottom_track_25\.mux_l1_in_2__A0
*670 ANTENNA_mux_bottom_track_25\.mux_l1_in_2__A1
*671 ANTENNA_mux_bottom_track_3\.mux_l1_in_0__A0
*672 ANTENNA_mux_bottom_track_3\.mux_l1_in_0__A1
*673 ANTENNA_mux_bottom_track_3\.mux_l1_in_1__A0
*674 ANTENNA_mux_bottom_track_3\.mux_l1_in_1__A1
*675 ANTENNA_mux_bottom_track_3\.mux_l2_in_1__A0
*676 ANTENNA_mux_bottom_track_3\.mux_l2_in_1__A1
*677 ANTENNA_mux_bottom_track_3\.mux_l2_in_2__A0
*678 ANTENNA_mux_bottom_track_3\.mux_l2_in_2__A1
*679 ANTENNA_mux_bottom_track_3\.mux_l2_in_3__A1
*680 ANTENNA_mux_bottom_track_33\.mux_l1_in_0__A0
*681 ANTENNA_mux_bottom_track_33\.mux_l1_in_0__A1
*682 ANTENNA_mux_bottom_track_33\.mux_l1_in_0__S
*683 ANTENNA_mux_bottom_track_33\.mux_l1_in_1__A0
*684 ANTENNA_mux_bottom_track_33\.mux_l1_in_1__A1
*685 ANTENNA_mux_bottom_track_33\.mux_l1_in_1__S
*686 ANTENNA_mux_bottom_track_33\.mux_l1_in_2__A0
*687 ANTENNA_mux_bottom_track_33\.mux_l1_in_2__A1
*688 ANTENNA_mux_bottom_track_33\.mux_l1_in_2__S
*689 ANTENNA_mux_bottom_track_5\.mux_l1_in_0__A0
*690 ANTENNA_mux_bottom_track_5\.mux_l1_in_0__A1
*691 ANTENNA_mux_bottom_track_5\.mux_l1_in_0__S
*692 ANTENNA_mux_bottom_track_5\.mux_l1_in_1__A0
*693 ANTENNA_mux_bottom_track_5\.mux_l1_in_1__A1
*694 ANTENNA_mux_bottom_track_5\.mux_l1_in_1__S
*695 ANTENNA_mux_bottom_track_5\.mux_l1_in_2__A0
*696 ANTENNA_mux_bottom_track_5\.mux_l1_in_2__A1
*697 ANTENNA_mux_bottom_track_5\.mux_l1_in_2__S
*698 ANTENNA_mux_bottom_track_5\.mux_l1_in_3__A0
*699 ANTENNA_mux_bottom_track_5\.mux_l1_in_3__A1
*700 ANTENNA_mux_bottom_track_5\.mux_l1_in_3__S
*701 ANTENNA_mux_bottom_track_5\.mux_l1_in_4__A0
*702 ANTENNA_mux_bottom_track_5\.mux_l1_in_4__A1
*703 ANTENNA_mux_bottom_track_5\.mux_l1_in_4__S
*704 ANTENNA_mux_bottom_track_5\.mux_l1_in_5__A0
*705 ANTENNA_mux_bottom_track_5\.mux_l1_in_5__A1
*706 ANTENNA_mux_bottom_track_5\.mux_l1_in_5__S
*707 ANTENNA_mux_bottom_track_5\.mux_l1_in_6__A0
*708 ANTENNA_mux_bottom_track_5\.mux_l1_in_6__A1
*709 ANTENNA_mux_bottom_track_5\.mux_l1_in_6__S
*710 ANTENNA_mux_bottom_track_9\.mux_l1_in_0__A0
*711 ANTENNA_mux_bottom_track_9\.mux_l1_in_0__A1
*712 ANTENNA_mux_bottom_track_9\.mux_l2_in_0__A0
*713 ANTENNA_mux_bottom_track_9\.mux_l2_in_0__S
*714 ANTENNA_mux_bottom_track_9\.mux_l2_in_1__A0
*715 ANTENNA_mux_bottom_track_9\.mux_l2_in_1__A1
*716 ANTENNA_mux_bottom_track_9\.mux_l2_in_1__S
*717 ANTENNA_mux_bottom_track_9\.mux_l2_in_2__A0
*718 ANTENNA_mux_bottom_track_9\.mux_l2_in_2__A1
*719 ANTENNA_mux_bottom_track_9\.mux_l2_in_2__S
*720 ANTENNA_mux_bottom_track_9\.mux_l2_in_3__A1
*721 ANTENNA_mux_bottom_track_9\.mux_l2_in_3__S
*722 ANTENNA_mux_left_track_1\.mux_l1_in_0__A0
*723 ANTENNA_mux_left_track_1\.mux_l1_in_0__A1