*SPEF "ieee 1481-1999"
*DESIGN "sb_2__2_"
*DATE "11:11:11 Fri 11 11, 1111"
*VENDOR "OpenRCX"
*PROGRAM "Parallel Extraction"
*VERSION "1.0"
*DESIGN_FLOW "NAME_SCOPE LOCAL" "PIN_CAP NONE"
*DIVIDER /
*DELIMITER :
*BUS_DELIMITER []
*T_UNIT 1 NS
*C_UNIT 1 PF
*R_UNIT 1 OHM
*L_UNIT 1 HENRY

*NAME_MAP
*1 SC_IN_BOT
*2 SC_OUT_BOT
*5 bottom_left_grid_pin_42_
*6 bottom_left_grid_pin_43_
*7 bottom_left_grid_pin_44_
*8 bottom_left_grid_pin_45_
*9 bottom_left_grid_pin_46_
*10 bottom_left_grid_pin_47_
*11 bottom_left_grid_pin_48_
*12 bottom_left_grid_pin_49_
*13 bottom_right_grid_pin_1_
*14 ccff_head
*15 ccff_tail
*16 chanx_left_in[0]
*17 chanx_left_in[10]
*18 chanx_left_in[11]
*19 chanx_left_in[12]
*20 chanx_left_in[13]
*21 chanx_left_in[14]
*22 chanx_left_in[15]
*23 chanx_left_in[16]
*24 chanx_left_in[17]
*25 chanx_left_in[18]
*26 chanx_left_in[19]
*27 chanx_left_in[1]
*28 chanx_left_in[2]
*29 chanx_left_in[3]
*30 chanx_left_in[4]
*31 chanx_left_in[5]
*32 chanx_left_in[6]
*33 chanx_left_in[7]
*34 chanx_left_in[8]
*35 chanx_left_in[9]
*36 chanx_left_out[0]
*37 chanx_left_out[10]
*38 chanx_left_out[11]
*39 chanx_left_out[12]
*40 chanx_left_out[13]
*41 chanx_left_out[14]
*42 chanx_left_out[15]
*43 chanx_left_out[16]
*44 chanx_left_out[17]
*45 chanx_left_out[18]
*46 chanx_left_out[19]
*47 chanx_left_out[1]
*48 chanx_left_out[2]
*49 chanx_left_out[3]
*50 chanx_left_out[4]
*51 chanx_left_out[5]
*52 chanx_left_out[6]
*53 chanx_left_out[7]
*54 chanx_left_out[8]
*55 chanx_left_out[9]
*56 chany_bottom_in[0]
*57 chany_bottom_in[10]
*58 chany_bottom_in[11]
*59 chany_bottom_in[12]
*60 chany_bottom_in[13]
*61 chany_bottom_in[14]
*62 chany_bottom_in[15]
*63 chany_bottom_in[16]
*64 chany_bottom_in[17]
*65 chany_bottom_in[18]
*66 chany_bottom_in[19]
*67 chany_bottom_in[1]
*68 chany_bottom_in[2]
*69 chany_bottom_in[3]
*70 chany_bottom_in[4]
*71 chany_bottom_in[5]
*72 chany_bottom_in[6]
*73 chany_bottom_in[7]
*74 chany_bottom_in[8]
*75 chany_bottom_in[9]
*76 chany_bottom_out[0]
*77 chany_bottom_out[10]
*78 chany_bottom_out[11]
*79 chany_bottom_out[12]
*80 chany_bottom_out[13]
*81 chany_bottom_out[14]
*82 chany_bottom_out[15]
*83 chany_bottom_out[16]
*84 chany_bottom_out[17]
*85 chany_bottom_out[18]
*86 chany_bottom_out[19]
*87 chany_bottom_out[1]
*88 chany_bottom_out[2]
*89 chany_bottom_out[3]
*90 chany_bottom_out[4]
*91 chany_bottom_out[5]
*92 chany_bottom_out[6]
*93 chany_bottom_out[7]
*94 chany_bottom_out[8]
*95 chany_bottom_out[9]
*96 left_bottom_grid_pin_34_
*97 left_bottom_grid_pin_35_
*98 left_bottom_grid_pin_36_
*99 left_bottom_grid_pin_37_
*100 left_bottom_grid_pin_38_
*101 left_bottom_grid_pin_39_
*102 left_bottom_grid_pin_40_
*103 left_bottom_grid_pin_41_
*104 left_top_grid_pin_1_
*105 prog_clk_0_S_in
*106 mem_bottom_track_1\.ccff_tail
*107 mem_bottom_track_1\.mem_out\[0\]
*108 mem_bottom_track_1\.mem_out\[1\]
*109 mem_bottom_track_1\.prog_clk
*110 mem_bottom_track_11\.ccff_head
*111 mem_bottom_track_11\.ccff_tail
*112 mem_bottom_track_11\.mem_out\[0\]
*113 mem_bottom_track_13\.ccff_tail
*114 mem_bottom_track_13\.mem_out\[0\]
*115 mem_bottom_track_15\.ccff_tail
*116 mem_bottom_track_15\.mem_out\[0\]
*117 mem_bottom_track_17\.ccff_tail
*118 mem_bottom_track_17\.mem_out\[0\]
*119 mem_bottom_track_19\.ccff_tail
*120 mem_bottom_track_19\.mem_out\[0\]
*121 mem_bottom_track_21\.ccff_tail
*122 mem_bottom_track_21\.mem_out\[0\]
*123 mem_bottom_track_23\.ccff_tail
*124 mem_bottom_track_23\.mem_out\[0\]
*125 mem_bottom_track_25\.ccff_tail
*126 mem_bottom_track_25\.mem_out\[0\]
*127 mem_bottom_track_27\.ccff_tail
*128 mem_bottom_track_27\.mem_out\[0\]
*129 mem_bottom_track_29\.ccff_tail
*130 mem_bottom_track_29\.mem_out\[0\]
*131 mem_bottom_track_3\.ccff_tail
*132 mem_bottom_track_3\.mem_out\[0\]
*133 mem_bottom_track_3\.mem_out\[1\]
*134 mem_bottom_track_5\.ccff_tail
*135 mem_bottom_track_5\.mem_out\[0\]
*136 mem_bottom_track_5\.mem_out\[1\]
*137 mem_bottom_track_7\.ccff_tail
*138 mem_bottom_track_7\.mem_out\[0\]
*139 mem_bottom_track_7\.mem_out\[1\]
*140 mem_bottom_track_9\.mem_out\[0\]
*141 mem_left_track_1\.ccff_tail
*142 mem_left_track_1\.mem_out\[0\]
*143 mem_left_track_1\.mem_out\[1\]
*144 mem_left_track_11\.ccff_head
*145 mem_left_track_11\.ccff_tail
*146 mem_left_track_11\.mem_out\[0\]
*147 mem_left_track_13\.ccff_tail
*148 mem_left_track_13\.mem_out\[0\]
*149 mem_left_track_15\.ccff_tail
*150 mem_left_track_15\.mem_out\[0\]
*151 mem_left_track_17\.ccff_tail
*152 mem_left_track_17\.mem_out\[0\]
*153 mem_left_track_19\.ccff_tail
*154 mem_left_track_19\.mem_out\[0\]
*155 mem_left_track_21\.ccff_tail
*156 mem_left_track_21\.mem_out\[0\]
*157 mem_left_track_23\.ccff_tail
*158 mem_left_track_23\.mem_out\[0\]
*159 mem_left_track_25\.ccff_tail
*160 mem_left_track_25\.mem_out\[0\]
*161 mem_left_track_27\.ccff_tail
*162 mem_left_track_27\.mem_out\[0\]
*163 mem_left_track_29\.ccff_tail
*164 mem_left_track_29\.mem_out\[0\]
*165 mem_left_track_3\.ccff_tail
*166 mem_left_track_3\.mem_out\[0\]
*167 mem_left_track_3\.mem_out\[1\]
*168 mem_left_track_31\.ccff_tail
*169 mem_left_track_31\.mem_out\[0\]
*170 mem_left_track_33\.ccff_tail
*171 mem_left_track_33\.mem_out\[0\]
*172 mem_left_track_35\.ccff_tail
*173 mem_left_track_35\.mem_out\[0\]
*174 mem_left_track_37\.ccff_tail
*175 mem_left_track_37\.mem_out\[0\]
*176 mem_left_track_39\.mem_out\[0\]
*177 mem_left_track_5\.ccff_tail
*178 mem_left_track_5\.mem_out\[0\]
*179 mem_left_track_5\.mem_out\[1\]
*180 mem_left_track_7\.ccff_tail
*181 mem_left_track_7\.mem_out\[0\]
*182 mem_left_track_7\.mem_out\[1\]
*183 mem_left_track_9\.mem_out\[0\]
*184 mux_bottom_track_1\.out
*185 mux_bottom_track_1\.sky130_fd_sc_hd__mux2_1_0_X
*186 mux_bottom_track_1\.sky130_fd_sc_hd__mux2_1_1_X
*187 mux_bottom_track_1\.sky130_fd_sc_hd__mux2_1_2_X
*188 mux_bottom_track_1\.sky130_fd_sc_hd__mux2_1_3_X
*189 mux_bottom_track_1\.sky130_fd_sc_hd__mux2_1_4_X
*190 mux_bottom_track_1\.sky130_fd_sc_hd__mux2_1_5_X
*191 mux_bottom_track_11\.out
*192 mux_bottom_track_11\.sky130_fd_sc_hd__mux2_1_0_X
*193 mux_bottom_track_11\.sky130_fd_sc_hd__mux2_1_1_X
*194 mux_bottom_track_13\.out
*195 mux_bottom_track_13\.sky130_fd_sc_hd__mux2_1_0_X
*196 mux_bottom_track_13\.sky130_fd_sc_hd__mux2_1_1_X
*197 mux_bottom_track_15\.out
*198 mux_bottom_track_15\.sky130_fd_sc_hd__mux2_1_0_X
*199 mux_bottom_track_15\.sky130_fd_sc_hd__mux2_1_1_X
*200 mux_bottom_track_17\.out
*201 mux_bottom_track_17\.sky130_fd_sc_hd__mux2_1_0_X
*202 mux_bottom_track_17\.sky130_fd_sc_hd__mux2_1_1_X
*203 mux_bottom_track_19\.out
*204 mux_bottom_track_19\.sky130_fd_sc_hd__mux2_1_0_X
*205 mux_bottom_track_19\.sky130_fd_sc_hd__mux2_1_1_X
*206 mux_bottom_track_21\.out
*207 mux_bottom_track_21\.sky130_fd_sc_hd__mux2_1_0_X
*208 mux_bottom_track_21\.sky130_fd_sc_hd__mux2_1_1_X
*209 mux_bottom_track_23\.out
*210 mux_bottom_track_23\.sky130_fd_sc_hd__mux2_1_0_X
*211 mux_bottom_track_23\.sky130_fd_sc_hd__mux2_1_1_X
*212 mux_bottom_track_25\.out
*213 mux_bottom_track_25\.sky130_fd_sc_hd__mux2_1_0_X
*214 mux_bottom_track_25\.sky130_fd_sc_hd__mux2_1_1_X
*215 mux_bottom_track_25\.sky130_fd_sc_hd__mux2_1_2_X
*216 mux_bottom_track_27\.out
*217 mux_bottom_track_27\.sky130_fd_sc_hd__mux2_1_0_X
*218 mux_bottom_track_27\.sky130_fd_sc_hd__mux2_1_1_X
*219 mux_bottom_track_29\.out
*220 mux_bottom_track_29\.sky130_fd_sc_hd__mux2_1_0_X
*221 mux_bottom_track_29\.sky130_fd_sc_hd__mux2_1_1_X
*222 mux_bottom_track_3\.out
*223 mux_bottom_track_3\.sky130_fd_sc_hd__mux2_1_0_X
*224 mux_bottom_track_3\.sky130_fd_sc_hd__mux2_1_1_X
*225 mux_bottom_track_3\.sky130_fd_sc_hd__mux2_1_2_X
*226 mux_bottom_track_3\.sky130_fd_sc_hd__mux2_1_3_X
*227 mux_bottom_track_3\.sky130_fd_sc_hd__mux2_1_4_X
*228 mux_bottom_track_5\.out
*229 mux_bottom_track_5\.sky130_fd_sc_hd__mux2_1_0_X
*230 mux_bottom_track_5\.sky130_fd_sc_hd__mux2_1_1_X
*231 mux_bottom_track_5\.sky130_fd_sc_hd__mux2_1_2_X
*232 mux_bottom_track_5\.sky130_fd_sc_hd__mux2_1_3_X
*233 mux_bottom_track_5\.sky130_fd_sc_hd__mux2_1_4_X
*234 mux_bottom_track_5\.sky130_fd_sc_hd__mux2_1_5_X
*235 mux_bottom_track_7\.out
*236 mux_bottom_track_7\.sky130_fd_sc_hd__mux2_1_0_X
*237 mux_bottom_track_7\.sky130_fd_sc_hd__mux2_1_1_X
*238 mux_bottom_track_7\.sky130_fd_sc_hd__mux2_1_2_X
*239 mux_bottom_track_7\.sky130_fd_sc_hd__mux2_1_3_X
*240 mux_bottom_track_7\.sky130_fd_sc_hd__mux2_1_4_X
*241 mux_bottom_track_9\.out
*242 mux_bottom_track_9\.sky130_fd_sc_hd__mux2_1_0_X
*243 mux_bottom_track_9\.sky130_fd_sc_hd__mux2_1_1_X
*244 mux_left_track_1\.out
*245 mux_left_track_1\.sky130_fd_sc_hd__mux2_1_0_X
*246 mux_left_track_1\.sky130_fd_sc_hd__mux2_1_1_X
*247 mux_left_track_1\.sky130_fd_sc_hd__mux2_1_2_X
*248 mux_left_track_1\.sky130_fd_sc_hd__mux2_1_3_X
*249 mux_left_track_1\.sky130_fd_sc_hd__mux2_1_4_X
*250 mux_left_track_1\.sky130_fd_sc_hd__mux2_1_5_X
*251 mux_left_track_11\.out
*252 mux_left_track_11\.sky130_fd_sc_hd__mux2_1_0_X
*253 mux_left_track_11\.sky130_fd_sc_hd__mux2_1_1_X
*254 mux_left_track_13\.out
*255 mux_left_track_13\.sky130_fd_sc_hd__mux2_1_0_X
*256 mux_left_track_13\.sky130_fd_sc_hd__mux2_1_1_X
*257 mux_left_track_15\.out
*258 mux_left_track_15\.sky130_fd_sc_hd__mux2_1_0_X
*259 mux_left_track_15\.sky130_fd_sc_hd__mux2_1_1_X
*260 mux_left_track_17\.out
*261 mux_left_track_17\.sky130_fd_sc_hd__mux2_1_0_X
*262 mux_left_track_17\.sky130_fd_sc_hd__mux2_1_1_X
*263 mux_left_track_19\.out
*264 mux_left_track_19\.sky130_fd_sc_hd__mux2_1_0_X
*265 mux_left_track_19\.sky130_fd_sc_hd__mux2_1_1_X
*266 mux_left_track_21\.out
*267 mux_left_track_21\.sky130_fd_sc_hd__mux2_1_0_X
*268 mux_left_track_21\.sky130_fd_sc_hd__mux2_1_1_X
*269 mux_left_track_23\.out
*270 mux_left_track_23\.sky130_fd_sc_hd__mux2_1_0_X
*271 mux_left_track_23\.sky130_fd_sc_hd__mux2_1_1_X
*272 mux_left_track_25\.out
*273 mux_left_track_25\.sky130_fd_sc_hd__mux2_1_0_X
*274 mux_left_track_25\.sky130_fd_sc_hd__mux2_1_1_X
*275 mux_left_track_25\.sky130_fd_sc_hd__mux2_1_2_X
*276 mux_left_track_27\.out
*277 mux_left_track_27\.sky130_fd_sc_hd__mux2_1_0_X
*278 mux_left_track_27\.sky130_fd_sc_hd__mux2_1_1_X
*279 mux_left_track_29\.out
*280 mux_left_track_29\.sky130_fd_sc_hd__mux2_1_0_X
*281 mux_left_track_29\.sky130_fd_sc_hd__mux2_1_1_X
*282 mux_left_track_3\.out
*283 mux_left_track_3\.sky130_fd_sc_hd__mux2_1_0_X
*284 mux_left_track_3\.sky130_fd_sc_hd__mux2_1_1_X
*285 mux_left_track_3\.sky130_fd_sc_hd__mux2_1_2_X
*286 mux_left_track_3\.sky130_fd_sc_hd__mux2_1_3_X
*287 mux_left_track_3\.sky130_fd_sc_hd__mux2_1_4_X
*288 mux_left_track_31\.out
*289 mux_left_track_31\.sky130_fd_sc_hd__mux2_1_0_X
*290 mux_left_track_31\.sky130_fd_sc_hd__mux2_1_1_X
*291 mux_left_track_33\.out
*292 mux_left_track_33\.sky130_fd_sc_hd__mux2_1_0_X
*293 mux_left_track_33\.sky130_fd_sc_hd__mux2_1_1_X
*294 mux_left_track_35\.out
*295 mux_left_track_35\.sky130_fd_sc_hd__mux2_1_0_X
*296 mux_left_track_35\.sky130_fd_sc_hd__mux2_1_1_X
*297 mux_left_track_37\.out
*298 mux_left_track_37\.sky130_fd_sc_hd__mux2_1_0_X
*299 mux_left_track_37\.sky130_fd_sc_hd__mux2_1_1_X
*300 mux_left_track_39\.out
*301 mux_left_track_39\.sky130_fd_sc_hd__mux2_1_0_X
*302 mux_left_track_39\.sky130_fd_sc_hd__mux2_1_1_X
*303 mux_left_track_5\.out
*304 mux_left_track_5\.sky130_fd_sc_hd__mux2_1_0_X
*305 mux_left_track_5\.sky130_fd_sc_hd__mux2_1_1_X
*306 mux_left_track_5\.sky130_fd_sc_hd__mux2_1_2_X
*307 mux_left_track_5\.sky130_fd_sc_hd__mux2_1_3_X
*308 mux_left_track_5\.sky130_fd_sc_hd__mux2_1_4_X
*309 mux_left_track_5\.sky130_fd_sc_hd__mux2_1_5_X
*310 mux_left_track_7\.out
*311 mux_left_track_7\.sky130_fd_sc_hd__mux2_1_0_X
*312 mux_left_track_7\.sky130_fd_sc_hd__mux2_1_1_X
*313 mux_left_track_7\.sky130_fd_sc_hd__mux2_1_2_X
*314 mux_left_track_7\.sky130_fd_sc_hd__mux2_1_3_X
*315 mux_left_track_7\.sky130_fd_sc_hd__mux2_1_4_X
*316 mux_left_track_9\.out
*317 mux_left_track_9\.sky130_fd_sc_hd__mux2_1_0_X
*318 mux_left_track_9\.sky130_fd_sc_hd__mux2_1_1_X
*319 mux_left_track_9\.sky130_fd_sc_hd__mux2_1_2_X
*320 net1
*321 net10
*322 net100
*323 net101
*324 net102
*325 net103
*326 net104
*327 net105
*328 net106
*329 net107
*330 net108
*331 net109
*332 net11
*333 net110
*334 net111
*335 net112
*336 net113
*337 net114
*338 net115
*339 net116
*340 net117
*341 net118
*342 net119
*343 net12
*344 net120
*345 net121
*346 net122
*347 net123
*348 net124
*349 net125
*350 net126
*351 net127
*352 net128
*353 net129
*354 net13
*355 net130
*356 net131
*357 net132
*358 net133
*359 net134
*360 net135
*361 net136
*362 net137
*363 net14
*364 net15
*365 net16
*366 net17
*367 net18
*368 net19
*369 net2
*370 net20
*371 net21
*372 net22
*373 net23
*374 net24
*375 net25
*376 net26
*377 net27
*378 net28
*379 net29
*380 net3
*381 net30
*382 net31
*383 net32
*384 net33
*385 net34
*386 net35
*387 net36
*388 net37
*389 net38
*390 net39
*391 net4
*392 net40
*393 net41
*394 net42
*395 net43
*396 net44
*397 net45
*398 net46
*399 net47
*400 net48
*401 net49
*402 net5
*403 net50
*404 net51
*405 net52
*406 net53
*407 net54
*408 net55
*409 net56
*410 net57
*411 net58
*412 net59
*413 net6
*414 net60
*415 net61
*416 net62
*417 net63
*418 net64
*419 net65
*420 net66
*421 net67
*422 net68
*423 net69
*424 net7
*425 net70
*426 net71
*427 net72
*428 net73
*429 net74
*430 net75
*431 net76
*432 net77
*433 net78
*434 net79
*435 net8
*436 net80
*437 net81
*438 net82
*439 net83
*440 net84
*441 net85
*442 net86
*443 net87
*444 net88
*445 net89
*446 net9
*447 net90
*448 net91
*449 net92
*450 net93
*451 net94
*452 net95
*453 net96
*454 net97
*455 net98
*456 net99
*457 ANTENNA_input10_A
*458 ANTENNA_input11_A
*459 ANTENNA_input12_A
*460 ANTENNA_input13_A
*461 ANTENNA_input14_A
*462 ANTENNA_input15_A
*463 ANTENNA_input16_A
*464 ANTENNA_input17_A
*465 ANTENNA_input18_A
*466 ANTENNA_input19_A
*467 ANTENNA_input1_A
*468 ANTENNA_input20_A
*469 ANTENNA_input21_A
*470 ANTENNA_input22_A
*471 ANTENNA_input23_A
*472 ANTENNA_input24_A
*473 ANTENNA_input25_A
*474 ANTENNA_input26_A
*475 ANTENNA_input27_A
*476 ANTENNA_input28_A
*477 ANTENNA_input29_A
*478 ANTENNA_input2_A
*479 ANTENNA_input30_A
*480 ANTENNA_input31_A
*481 ANTENNA_input32_A
*482 ANTENNA_input33_A
*483 ANTENNA_input34_A
*484 ANTENNA_input35_A
*485 ANTENNA_input36_A
*486 ANTENNA_input37_A
*487 ANTENNA_input38_A
*488 ANTENNA_input39_A
*489 ANTENNA_input3_A
*490 ANTENNA_input40_A
*491 ANTENNA_input41_A
*492 ANTENNA_input42_A
*493 ANTENNA_input43_A
*494 ANTENNA_input44_A
*495 ANTENNA_input45_A
*496 ANTENNA_input46_A
*497 ANTENNA_input47_A
*498 ANTENNA_input48_A
*499 ANTENNA_input49_A
*500 ANTENNA_input4_A
*501 ANTENNA_input50_A
*502 ANTENNA_input51_A
*503 ANTENNA_input52_A
*504 ANTENNA_input53_A
*505 ANTENNA_input54_A
*506 ANTENNA_input55_A
*507 ANTENNA_input56_A
*508 ANTENNA_input57_A
*509 ANTENNA_input58_A
*510 ANTENNA_input59_A
*511 ANTENNA_input5_A
*512 ANTENNA_input60_A
*513 ANTENNA_input6_A
*514 ANTENNA_input7_A
*515 ANTENNA_input8_A
*516 ANTENNA_input9_A
*517 ANTENNA_mem_bottom_track_1\.sky130_fd_sc_hd__dfxtp_1_0__CLK
*518 ANTENNA_mem_bottom_track_1\.sky130_fd_sc_hd__dfxtp_1_1__CLK
*519 ANTENNA_mem_bottom_track_1\.sky130_fd_sc_hd__dfxtp_1_2__CLK
*520 ANTENNA_mem_bottom_track_11\.sky130_fd_sc_hd__dfxtp_1_0__CLK
*521 ANTENNA_mem_bottom_track_11\.sky130_fd_sc_hd__dfxtp_1_1__CLK
*522 ANTENNA_mem_bottom_track_13\.sky130_fd_sc_hd__dfxtp_1_0__CLK
*523 ANTENNA_mem_bottom_track_13\.sky130_fd_sc_hd__dfxtp_1_1__CLK
*524 ANTENNA_mem_bottom_track_15\.sky130_fd_sc_hd__dfxtp_1_0__CLK
*525 ANTENNA_mem_bottom_track_15\.sky130_fd_sc_hd__dfxtp_1_1__CLK
*526 ANTENNA_mem_bottom_track_17\.sky130_fd_sc_hd__dfxtp_1_0__CLK
*527 ANTENNA_mem_bottom_track_17\.sky130_fd_sc_hd__dfxtp_1_1__CLK
*528 ANTENNA_mem_bottom_track_19\.sky130_fd_sc_hd__dfxtp_1_0__CLK
*529 ANTENNA_mem_bottom_track_19\.sky130_fd_sc_hd__dfxtp_1_1__CLK
*530 ANTENNA_mem_bottom_track_21\.sky130_fd_sc_hd__dfxtp_1_0__CLK
*531 ANTENNA_mem_bottom_track_21\.sky130_fd_sc_hd__dfxtp_1_1__CLK
*532 ANTENNA_mem_bottom_track_23\.sky130_fd_sc_hd__dfxtp_1_0__CLK
*533 ANTENNA_mem_bottom_track_23\.sky130_fd_sc_hd__dfxtp_1_1__CLK
*534 ANTENNA_mem_bottom_track_25\.sky130_fd_sc_hd__dfxtp_1_0__CLK
*535 ANTENNA_mem_bottom_track_25\.sky130_fd_sc_hd__dfxtp_1_1__CLK
*536 ANTENNA_mem_bottom_track_27\.sky130_fd_sc_hd__dfxtp_1_0__CLK
*537 ANTENNA_mem_bottom_track_27\.sky130_fd_sc_hd__dfxtp_1_1__CLK
*538 ANTENNA_mem_bottom_track_29\.sky130_fd_sc_hd__dfxtp_1_0__CLK
*539 ANTENNA_mem_bottom_track_29\.sky130_fd_sc_hd__dfxtp_1_1__CLK
*540 ANTENNA_mem_bottom_track_3\.sky130_fd_sc_hd__dfxtp_1_0__CLK
*541 ANTENNA_mem_bottom_track_3\.sky130_fd_sc_hd__dfxtp_1_0__D
*542 ANTENNA_mem_bottom_track_3\.sky130_fd_sc_hd__dfxtp_1_1__CLK
*543 ANTENNA_mem_bottom_track_3\.sky130_fd_sc_hd__dfxtp_1_1__D
*544 ANTENNA_mem_bottom_track_3\.sky130_fd_sc_hd__dfxtp_1_2__CLK
*545 ANTENNA_mem_bottom_track_5\.sky130_fd_sc_hd__dfxtp_1_0__CLK
*546 ANTENNA_mem_bottom_track_5\.sky130_fd_sc_hd__dfxtp_1_1__CLK
*547 ANTENNA_mem_bottom_track_5\.sky130_fd_sc_hd__dfxtp_1_2__CLK
*548 ANTENNA_mem_bottom_track_7\.sky130_fd_sc_hd__dfxtp_1_0__CLK
*549 ANTENNA_mem_bottom_track_7\.sky130_fd_sc_hd__dfxtp_1_1__CLK
*550 ANTENNA_mem_bottom_track_7\.sky130_fd_sc_hd__dfxtp_1_2__CLK
*551 ANTENNA_mem_bottom_track_9\.sky130_fd_sc_hd__dfxtp_1_0__CLK
*552 ANTENNA_mem_bottom_track_9\.sky130_fd_sc_hd__dfxtp_1_1__CLK
*553 ANTENNA_mem_left_track_1\.sky130_fd_sc_hd__dfxtp_1_0__CLK
*554 ANTENNA_mem_left_track_1\.sky130_fd_sc_hd__dfxtp_1_1__CLK
*555 ANTENNA_mem_left_track_1\.sky130_fd_sc_hd__dfxtp_1_2__CLK
*556 ANTENNA_mem_left_track_11\.sky130_fd_sc_hd__dfxtp_1_0__CLK
*557 ANTENNA_mem_left_track_11\.sky130_fd_sc_hd__dfxtp_1_1__CLK
*558 ANTENNA_mem_left_track_13\.sky130_fd_sc_hd__dfxtp_1_0__CLK
*559 ANTENNA_mem_left_track_13\.sky130_fd_sc_hd__dfxtp_1_1__CLK
*560 ANTENNA_mem_left_track_15\.sky130_fd_sc_hd__dfxtp_1_0__CLK
*561 ANTENNA_mem_left_track_15\.sky130_fd_sc_hd__dfxtp_1_1__CLK
*562 ANTENNA_mem_left_track_17\.sky130_fd_sc_hd__dfxtp_1_0__CLK
*563 ANTENNA_mem_left_track_17\.sky130_fd_sc_hd__dfxtp_1_1__CLK
*564 ANTENNA_mem_left_track_19\.sky130_fd_sc_hd__dfxtp_1_0__CLK
*565 ANTENNA_mem_left_track_19\.sky130_fd_sc_hd__dfxtp_1_1__CLK
*566 ANTENNA_mem_left_track_21\.sky130_fd_sc_hd__dfxtp_1_0__CLK
*567 ANTENNA_mem_left_track_21\.sky130_fd_sc_hd__dfxtp_1_1__CLK
*568 ANTENNA_mem_left_track_23\.sky130_fd_sc_hd__dfxtp_1_0__CLK
*569 ANTENNA_mem_left_track_23\.sky130_fd_sc_hd__dfxtp_1_1__CLK
*570 ANTENNA_mem_left_track_25\.sky130_fd_sc_hd__dfxtp_1_0__CLK
*571 ANTENNA_mem_left_track_25\.sky130_fd_sc_hd__dfxtp_1_1__CLK
*572 ANTENNA_mem_left_track_25\.sky130_fd_sc_hd__dfxtp_1_1__D
*573 ANTENNA_mem_left_track_27\.sky130_fd_sc_hd__dfxtp_1_0__CLK
*574 ANTENNA_mem_left_track_27\.sky130_fd_sc_hd__dfxtp_1_0__D
*575 ANTENNA_mem_left_track_27\.sky130_fd_sc_hd__dfxtp_1_1__CLK
*576 ANTENNA_mem_left_track_29\.sky130_fd_sc_hd__dfxtp_1_0__CLK
*577 ANTENNA_mem_left_track_29\.sky130_fd_sc_hd__dfxtp_1_1__CLK
*578 ANTENNA_mem_left_track_3\.sky130_fd_sc_hd__dfxtp_1_0__CLK
*579 ANTENNA_mem_left_track_3\.sky130_fd_sc_hd__dfxtp_1_1__CLK
*580 ANTENNA_mem_left_track_3\.sky130_fd_sc_hd__dfxtp_1_2__CLK
*581 ANTENNA_mem_left_track_31\.sky130_fd_sc_hd__dfxtp_1_0__CLK
*582 ANTENNA_mem_left_track_31\.sky130_fd_sc_hd__dfxtp_1_1__CLK
*583 ANTENNA_mem_left_track_33\.sky130_fd_sc_hd__dfxtp_1_0__CLK
*584 ANTENNA_mem_left_track_33\.sky130_fd_sc_hd__dfxtp_1_1__CLK
*585 ANTENNA_mem_left_track_35\.sky130_fd_sc_hd__dfxtp_1_0__CLK
*586 ANTENNA_mem_left_track_35\.sky130_fd_sc_hd__dfxtp_1_1__CLK
*587 ANTENNA_mem_left_track_37\.sky130_fd_sc_hd__dfxtp_1_0__CLK
*588 ANTENNA_mem_left_track_37\.sky130_fd_sc_hd__dfxtp_1_1__CLK
*589 ANTENNA_mem_left_track_39\.sky130_fd_sc_hd__dfxtp_1_0__CLK
*590 ANTENNA_mem_left_track_39\.sky130_fd_sc_hd__dfxtp_1_1__CLK
*591 ANTENNA_mem_left_track_5\.sky130_fd_sc_hd__dfxtp_1_0__CLK
*592 ANTENNA_mem_left_track_5\.sky130_fd_sc_hd__dfxtp_1_1__CLK
*593 ANTENNA_mem_left_track_5\.sky130_fd_sc_hd__dfxtp_1_2__CLK
*594 ANTENNA_mem_left_track_7\.sky130_fd_sc_hd__dfxtp_1_0__CLK
*595 ANTENNA_mem_left_track_7\.sky130_fd_sc_hd__dfxtp_1_1__CLK
*596 ANTENNA_mem_left_track_7\.sky130_fd_sc_hd__dfxtp_1_2__CLK
*597 ANTENNA_mem_left_track_9\.sky130_fd_sc_hd__dfxtp_1_0__CLK
*598 ANTENNA_mem_left_track_9\.sky130_fd_sc_hd__dfxtp_1_1__CLK
*599 ANTENNA_mux_bottom_track_1\.mux_l3_in_0__S
*600 ANTENNA_mux_bottom_track_3\.mux_l1_in_0__S
*601 ANTENNA_mux_bottom_track_3\.mux_l1_in_1__S
*602 ANTENNA_mux_left_track_1\.mux_l1_in_1__A0
*603 ANTENNA_mux_left_track_1\.mux_l1_in_1__A1
*604 ANTENNA_mux_left_track_1\.mux_l1_in_2__A1
*605 ANTENNA_mux_left_track_13\.mux_l1_in_0__A0
*606 ANTENNA_mux_left_track_17\.mux_l1_in_0__A0
*607 ANTENNA_mux_left_track_19\.mux_l1_in_0__A0
*608 ANTENNA_mux_left_track_21\.mux_l1_in_0__A0
*609 ANTENNA_mux_left_track_23\.mux_l1_in_0__A0
*610 ANTENNA_mux_left_track_25\.mux_l1_in_0__S
*611 ANTENNA_mux_left_track_25\.mux_l1_in_1__S
*612 ANTENNA_mux_left_track_25\.mux_l2_in_0__S
*613 ANTENNA_mux_left_track_29\.mux_l1_in_0__A0
*614 ANTENNA_mux_left_track_3\.mux_l1_in_1__A0
*615 ANTENNA_mux_left_track_3\.mux_l2_in_1__A1
*616 ANTENNA_mux_left_track_33\.mux_l1_in_0__A0
*617 ANTENNA_mux_left_track_35\.mux_l1_in_0__A0
*618 ANTENNA_mux_left_track_37\.mux_l1_in_0__A0
*619 ANTENNA_mux_left_track_39\.mux_l1_in_0__A0
*620 ANTENNA_mux_left_track_39\.mux_l2_in_0__S
*621 ANTENNA_mux_left_track_5\.mux_l1_in_1__A0
*622 ANTENNA_mux_left_track_5\.mux_l1_in_1__A1
*623 ANTENNA_mux_left_track_5\.mux_l1_in_2__A1
*624 ANTENNA_mux_left_track_7\.mux_l1_in_1__A0
*625 ANTENNA_mux_left_track_7\.mux_l2_in_1__A1
*626 ANTENNA_output62_A
*627 ANTENNA_output89_A
*628 ANTENNA_output90_A
*629 ANTENNA_output91_A
*630 ANTENNA_output92_A
*631 ANTENNA_prog_clk_0_FTB00_A
*632 FILLER_0_105
*633 FILLER_0_110
*634 FILLER_0_129
*635 FILLER_0_13
*636 FILLER_0_135
*637 FILLER_0_139
*638 FILLER_0_145
*639 FILLER_0_151
*640 FILLER_0_157
*641 FILLER_0_163
*642 FILLER_0_167
*643 FILLER_0_173
*644 FILLER_0_179
*645 FILLER_0_183
*646 FILLER_0_194
*647 FILLER_0_197
*648 FILLER_0_215
*649 FILLER_0_221
*650 FILLER_0_25
*651 FILLER_0_39
*652 FILLER_0_44
*653 FILLER_0_49
*654 FILLER_0_54
*655 FILLER_0_57
*656 FILLER_0_62
*657 FILLER_0_67
*658 FILLER_0_72
*659 FILLER_0_77
*660 FILLER_0_82
*661 FILLER_0_87
*662 FILLER_0_98
*663 FILLER_10_102
*664 FILLER_10_106
*665 FILLER_10_11
*666 FILLER_10_110
*667 FILLER_10_127
*668 FILLER_10_133
*669 FILLER_10_137
*670 FILLER_10_141
*671 FILLER_10_159
*672 FILLER_10_16
*673 FILLER_10_177
*674 FILLER_10_181
*675 FILLER_10_187
*676 FILLER_10_191
*677 FILLER_10_195
*678 FILLER_10_20
*679 FILLER_10_213
*680 FILLER_10_217
*681 FILLER_10_221
*682 FILLER_10_24
*683 FILLER_10_31
*684 FILLER_10_42
*685 FILLER_10_53
*686 FILLER_10_57
*687 FILLER_10_6
*688 FILLER_10_61
*689 FILLER_10_65
*690 FILLER_10_75
*691 FILLER_10_80
*692 FILLER_10_87
*693 FILLER_10_98
*694 FILLER_11_10
*695 FILLER_11_107
*696 FILLER_11_110
*697 FILLER_11_113
*698 FILLER_11_131
*699 FILLER_11_149
*700 FILLER_11_15
*701 FILLER_11_153
*702 FILLER_11_157
*703 FILLER_11_160
*704 FILLER_11_166
*705 FILLER_11_185
*706 FILLER_11_203
*707 FILLER_11_22
*708 FILLER_11_221
*709 FILLER_11_26
*710 FILLER_11_39
*711 FILLER_11_50
*712 FILLER_11_54
*713 FILLER_11_57
*714 FILLER_11_6
*715 FILLER_11_63
*716 FILLER_11_74
*717 FILLER_11_85
*718 FILLER_11_89
*719 FILLER_11_99
*720 FILLER_12_11
*721 FILLER_12_110
*722 FILLER_12_128
*723 FILLER_12_132
*724 FILLER_12_141
*725 FILLER_12_158
*726 FILLER_12_177
*727 FILLER_12_181
*728 FILLER_12_187
*729 FILLER_12_191
*730 FILLER_12_195
*731 FILLER_12_197
*732 FILLER_12_200
*733 FILLER_12_218
*734 FILLER_12_222
*735 FILLER_12_24
*736 FILLER_12_32
*737 FILLER_12_43
*738 FILLER_12_48
*739 FILLER_12_52
*740 FILLER_12_56
*741 FILLER_12_6
*742 FILLER_12_60
*743 FILLER_12_64
*744 FILLER_12_77
*745 FILLER_12_82
*746 FILLER_12_87
*747 FILLER_12_92
*748 FILLER_13_11
*749 FILLER_13_110
*750 FILLER_13_129
*751 FILLER_13_133
*752 FILLER_13_145
*753 FILLER_13_15
*754 FILLER_13_153
*755 FILLER_13_158
*756 FILLER_13_162
*757 FILLER_13_166
*758 FILLER_13_171
*759 FILLER_13_189
*760 FILLER_13_19
*761 FILLER_13_194
*762 FILLER_13_214
*763 FILLER_13_218
*764 FILLER_13_221
*765 FILLER_13_23
*766 FILLER_13_35
*767 FILLER_13_47
*768 FILLER_13_51
*769 FILLER_13_55
*770 FILLER_13_6
*771 FILLER_13_66
*772 FILLER_13_77
*773 FILLER_13_81
*774 FILLER_13_89
*775 FILLER_13_99
*776 FILLER_14_11
*777 FILLER_14_121
*778 FILLER_14_125
*779 FILLER_14_137
*780 FILLER_14_141
*781 FILLER_14_145
*782 FILLER_14_148
*783 FILLER_14_16
*784 FILLER_14_160
*785 FILLER_14_166
*786 FILLER_14_170
*787 FILLER_14_174
*788 FILLER_14_192
*789 FILLER_14_20
*790 FILLER_14_213
*791 FILLER_14_217
*792 FILLER_14_221
*793 FILLER_14_26
*794 FILLER_14_29
*795 FILLER_14_34
*796 FILLER_14_45
*797 FILLER_14_56
*798 FILLER_14_6
*799 FILLER_14_60
*800 FILLER_14_66
*801 FILLER_14_71
*802 FILLER_14_82
*803 FILLER_14_94
*804 FILLER_14_99
*805 FILLER_15_102
*806 FILLER_15_110
*807 FILLER_15_113
*808 FILLER_15_119
*809 FILLER_15_122
*810 FILLER_15_146
*811 FILLER_15_164
*812 FILLER_15_18
*813 FILLER_15_185
*814 FILLER_15_203
*815 FILLER_15_221
*816 FILLER_15_24
*817 FILLER_15_35
*818 FILLER_15_48
*819 FILLER_15_52
*820 FILLER_15_59
*821 FILLER_15_6
*822 FILLER_15_72
*823 FILLER_15_77
*824 FILLER_15_90
*825 FILLER_16_100
*826 FILLER_16_120
*827 FILLER_16_138
*828 FILLER_16_143
*829 FILLER_16_16
*830 FILLER_16_161
*831 FILLER_16_179
*832 FILLER_16_183
*833 FILLER_16_187
*834 FILLER_16_191
*835 FILLER_16_195
*836 FILLER_16_197
*837 FILLER_16_21
*838 FILLER_16_214
*839 FILLER_16_218
*840 FILLER_16_222
*841 FILLER_16_25
*842 FILLER_16_31
*843 FILLER_16_35
*844 FILLER_16_46
*845 FILLER_16_5
*846 FILLER_16_57
*847 FILLER_16_61
*848 FILLER_16_71
*849 FILLER_16_82
*850 FILLER_16_88
*851 FILLER_17_10
*852 FILLER_17_110
*853 FILLER_17_115
*854 FILLER_17_135
*855 FILLER_17_139
*856 FILLER_17_158
*857 FILLER_17_162
*858 FILLER_17_166
*859 FILLER_17_185
*860 FILLER_17_20
*861 FILLER_17_203
*862 FILLER_17_221
*863 FILLER_17_25
*864 FILLER_17_29
*865 FILLER_17_40
*866 FILLER_17_51
*867 FILLER_17_55
*868 FILLER_17_6
*869 FILLER_17_66
*870 FILLER_17_81
*871 FILLER_17_92
*872 FILLER_18_10
*873 FILLER_18_109
*874 FILLER_18_115
*875 FILLER_18_132
*876 FILLER_18_136
*877 FILLER_18_141
*878 FILLER_18_153
*879 FILLER_18_157
*880 FILLER_18_174
*881 FILLER_18_178
*882 FILLER_18_190
*883 FILLER_18_197
*884 FILLER_18_20
*885 FILLER_18_205
*886 FILLER_18_209
*887 FILLER_18_213
*888 FILLER_18_217
*889 FILLER_18_221
*890 FILLER_18_25
*891 FILLER_18_31
*892 FILLER_18_44
*893 FILLER_18_49
*894 FILLER_18_6
*895 FILLER_18_60
*896 FILLER_18_71
*897 FILLER_18_82
*898 FILLER_18_87
*899 FILLER_18_98
*900 FILLER_19_103
*901 FILLER_19_111
*902 FILLER_19_113
*903 FILLER_19_119
*904 FILLER_19_12
*905 FILLER_19_129
*906 FILLER_19_141
*907 FILLER_19_153
*908 FILLER_19_165
*909 FILLER_19_169
*910 FILLER_19_17
*911 FILLER_19_181
*912 FILLER_19_193
*913 FILLER_19_205
*914 FILLER_19_211
*915 FILLER_19_215
*916 FILLER_19_220
*917 FILLER_19_24
*918 FILLER_19_28
*919 FILLER_19_32
*920 FILLER_19_44
*921 FILLER_19_54
*922 FILLER_19_57
*923 FILLER_19_61
*924 FILLER_19_66
*925 FILLER_19_7
*926 FILLER_19_77
*927 FILLER_19_81
*928 FILLER_19_87
*929 FILLER_19_92
*930 FILLER_1_110
*931 FILLER_1_129
*932 FILLER_1_13
*933 FILLER_1_135
*934 FILLER_1_141
*935 FILLER_1_147
*936 FILLER_1_152
*937 FILLER_1_159
*938 FILLER_1_165
*939 FILLER_1_178
*940 FILLER_1_184
*941 FILLER_1_188
*942 FILLER_1_205
*943 FILLER_1_219
*944 FILLER_1_25
*945 FILLER_1_37
*946 FILLER_1_44
*947 FILLER_1_49
*948 FILLER_1_54
*949 FILLER_1_57
*950 FILLER_1_69
*951 FILLER_1_73
*952 FILLER_1_77
*953 FILLER_1_82
*954 FILLER_1_87
*955 FILLER_1_92
*956 FILLER_20_108
*957 FILLER_20_113
*958 FILLER_20_117
*959 FILLER_20_128
*960 FILLER_20_133
*961 FILLER_20_139
*962 FILLER_20_141
*963 FILLER_20_153
*964 FILLER_20_16
*965 FILLER_20_165
*966 FILLER_20_177
*967 FILLER_20_189
*968 FILLER_20_195
*969 FILLER_20_197
*970 FILLER_20_209
*971 FILLER_20_21
*972 FILLER_20_217
*973 FILLER_20_26
*974 FILLER_20_29
*975 FILLER_20_42
*976 FILLER_20_48
*977 FILLER_20_5
*978 FILLER_20_60
*979 FILLER_20_64
*980 FILLER_20_68
*981 FILLER_20_81
*982 FILLER_20_85
*983 FILLER_20_93
*984 FILLER_20_97
*985 FILLER_21_110
*986 FILLER_21_12
*987 FILLER_21_122
*988 FILLER_21_133
*989 FILLER_21_145
*990 FILLER_21_157
*991 FILLER_21_165
*992 FILLER_21_169
*993 FILLER_21_17
*994 FILLER_21_181
*995 FILLER_21_193
*996 FILLER_21_205
*997 FILLER_21_217
*998 FILLER_21_22
*999 FILLER_21_33
*1000 FILLER_21_38
*1001 FILLER_21_50
*1002 FILLER_21_54
*1003 FILLER_21_59
*1004 FILLER_21_67
*1005 FILLER_21_7
*1006 FILLER_21_72
*1007 FILLER_21_83
*1008 FILLER_21_88
*1009 FILLER_21_99
*1010 FILLER_22_103
*1011 FILLER_22_112
*1012 FILLER_22_120
*1013 FILLER_22_124
*1014 FILLER_22_13
*1015 FILLER_22_136
*1016 FILLER_22_141
*1017 FILLER_22_153
*1018 FILLER_22_165
*1019 FILLER_22_177
*1020 FILLER_22_18
*1021 FILLER_22_189
*1022 FILLER_22_195
*1023 FILLER_22_197
*1024 FILLER_22_209
*1025 FILLER_22_221
*1026 FILLER_22_25
*1027 FILLER_22_38
*1028 FILLER_22_42
*1029 FILLER_22_45
*1030 FILLER_22_57
*1031 FILLER_22_69
*1032 FILLER_22_7
*1033 FILLER_22_81
*1034 FILLER_22_87
*1035 FILLER_22_98
*1036 FILLER_23_101
*1037 FILLER_23_109
*1038 FILLER_23_113
*1039 FILLER_23_12
*1040 FILLER_23_125
*1041 FILLER_23_137
*1042 FILLER_23_149
*1043 FILLER_23_161
*1044 FILLER_23_167
*1045 FILLER_23_169
*1046 FILLER_23_17
*1047 FILLER_23_181
*1048 FILLER_23_193
*1049 FILLER_23_205
*1050 FILLER_23_217
*1051 FILLER_23_23
*1052 FILLER_23_27
*1053 FILLER_23_32
*1054 FILLER_23_43
*1055 FILLER_23_54
*1056 FILLER_23_59
*1057 FILLER_23_7
*1058 FILLER_23_72
*1059 FILLER_23_77
*1060 FILLER_23_89
*1061 FILLER_24_109
*1062 FILLER_24_12
*1063 FILLER_24_121
*1064 FILLER_24_133
*1065 FILLER_24_139
*1066 FILLER_24_141
*1067 FILLER_24_153
*1068 FILLER_24_165
*1069 FILLER_24_17
*1070 FILLER_24_177
*1071 FILLER_24_189
*1072 FILLER_24_195
*1073 FILLER_24_197
*1074 FILLER_24_209
*1075 FILLER_24_221
*1076 FILLER_24_25
*1077 FILLER_24_29
*1078 FILLER_24_38
*1079 FILLER_24_47
*1080 FILLER_24_59
*1081 FILLER_24_7
*1082 FILLER_24_76
*1083 FILLER_24_85
*1084 FILLER_24_97
*1085 FILLER_25_111
*1086 FILLER_25_113
*1087 FILLER_25_125
*1088 FILLER_25_13
*1089 FILLER_25_137
*1090 FILLER_25_149