*SPEF "ieee 1481-1999"
*DESIGN "sb_2__1_"
*DATE "11:11:11 Fri 11 11, 1111"
*VENDOR "OpenRCX"
*PROGRAM "Parallel Extraction"
*VERSION "1.0"
*DESIGN_FLOW "NAME_SCOPE LOCAL" "PIN_CAP NONE"
*DIVIDER /
*DELIMITER :
*BUS_DELIMITER []
*T_UNIT 1 NS
*C_UNIT 1 PF
*R_UNIT 1 OHM
*L_UNIT 1 HENRY

*NAME_MAP
*3 bottom_left_grid_pin_42_
*4 bottom_left_grid_pin_43_
*5 bottom_left_grid_pin_44_
*6 bottom_left_grid_pin_45_
*7 bottom_left_grid_pin_46_
*8 bottom_left_grid_pin_47_
*9 bottom_left_grid_pin_48_
*10 bottom_left_grid_pin_49_
*11 bottom_right_grid_pin_1_
*12 ccff_head
*13 ccff_tail
*14 chanx_left_in[0]
*15 chanx_left_in[10]
*16 chanx_left_in[11]
*17 chanx_left_in[12]
*18 chanx_left_in[13]
*19 chanx_left_in[14]
*20 chanx_left_in[15]
*21 chanx_left_in[16]
*22 chanx_left_in[17]
*23 chanx_left_in[18]
*24 chanx_left_in[19]
*25 chanx_left_in[1]
*26 chanx_left_in[2]
*27 chanx_left_in[3]
*28 chanx_left_in[4]
*29 chanx_left_in[5]
*30 chanx_left_in[6]
*31 chanx_left_in[7]
*32 chanx_left_in[8]
*33 chanx_left_in[9]
*34 chanx_left_out[0]
*35 chanx_left_out[10]
*36 chanx_left_out[11]
*37 chanx_left_out[12]
*38 chanx_left_out[13]
*39 chanx_left_out[14]
*40 chanx_left_out[15]
*41 chanx_left_out[16]
*42 chanx_left_out[17]
*43 chanx_left_out[18]
*44 chanx_left_out[19]
*45 chanx_left_out[1]
*46 chanx_left_out[2]
*47 chanx_left_out[3]
*48 chanx_left_out[4]
*49 chanx_left_out[5]
*50 chanx_left_out[6]
*51 chanx_left_out[7]
*52 chanx_left_out[8]
*53 chanx_left_out[9]
*54 chany_bottom_in[0]
*55 chany_bottom_in[10]
*56 chany_bottom_in[11]
*57 chany_bottom_in[12]
*58 chany_bottom_in[13]
*59 chany_bottom_in[14]
*60 chany_bottom_in[15]
*61 chany_bottom_in[16]
*62 chany_bottom_in[17]
*63 chany_bottom_in[18]
*64 chany_bottom_in[19]
*65 chany_bottom_in[1]
*66 chany_bottom_in[2]
*67 chany_bottom_in[3]
*68 chany_bottom_in[4]
*69 chany_bottom_in[5]
*70 chany_bottom_in[6]
*71 chany_bottom_in[7]
*72 chany_bottom_in[8]
*73 chany_bottom_in[9]
*74 chany_bottom_out[0]
*75 chany_bottom_out[10]
*76 chany_bottom_out[11]
*77 chany_bottom_out[12]
*78 chany_bottom_out[13]
*79 chany_bottom_out[14]
*80 chany_bottom_out[15]
*81 chany_bottom_out[16]
*82 chany_bottom_out[17]
*83 chany_bottom_out[18]
*84 chany_bottom_out[19]
*85 chany_bottom_out[1]
*86 chany_bottom_out[2]
*87 chany_bottom_out[3]
*88 chany_bottom_out[4]
*89 chany_bottom_out[5]
*90 chany_bottom_out[6]
*91 chany_bottom_out[7]
*92 chany_bottom_out[8]
*93 chany_bottom_out[9]
*94 chany_top_in[0]
*95 chany_top_in[10]
*96 chany_top_in[11]
*97 chany_top_in[12]
*98 chany_top_in[13]
*99 chany_top_in[14]
*100 chany_top_in[15]
*101 chany_top_in[16]
*102 chany_top_in[17]
*103 chany_top_in[18]
*104 chany_top_in[19]
*105 chany_top_in[1]
*106 chany_top_in[2]
*107 chany_top_in[3]
*108 chany_top_in[4]
*109 chany_top_in[5]
*110 chany_top_in[6]
*111 chany_top_in[7]
*112 chany_top_in[8]
*113 chany_top_in[9]
*114 chany_top_out[0]
*115 chany_top_out[10]
*116 chany_top_out[11]
*117 chany_top_out[12]
*118 chany_top_out[13]
*119 chany_top_out[14]
*120 chany_top_out[15]
*121 chany_top_out[16]
*122 chany_top_out[17]
*123 chany_top_out[18]
*124 chany_top_out[19]
*125 chany_top_out[1]
*126 chany_top_out[2]
*127 chany_top_out[3]
*128 chany_top_out[4]
*129 chany_top_out[5]
*130 chany_top_out[6]
*131 chany_top_out[7]
*132 chany_top_out[8]
*133 chany_top_out[9]
*134 left_bottom_grid_pin_34_
*135 left_bottom_grid_pin_35_
*136 left_bottom_grid_pin_36_
*137 left_bottom_grid_pin_37_
*138 left_bottom_grid_pin_38_
*139 left_bottom_grid_pin_39_
*140 left_bottom_grid_pin_40_
*141 left_bottom_grid_pin_41_
*142 prog_clk_0_N_in
*143 top_left_grid_pin_42_
*144 top_left_grid_pin_43_
*145 top_left_grid_pin_44_
*146 top_left_grid_pin_45_
*147 top_left_grid_pin_46_
*148 top_left_grid_pin_47_
*149 top_left_grid_pin_48_
*150 top_left_grid_pin_49_
*151 top_right_grid_pin_1_
*152 mem_bottom_track_1\.ccff_head
*153 mem_bottom_track_1\.ccff_tail
*154 mem_bottom_track_1\.mem_out\[0\]
*155 mem_bottom_track_1\.mem_out\[1\]
*156 mem_bottom_track_1\.mem_out\[2\]
*157 mem_bottom_track_1\.prog_clk
*158 mem_bottom_track_17\.ccff_head
*159 mem_bottom_track_17\.ccff_tail
*160 mem_bottom_track_17\.mem_out\[0\]
*161 mem_bottom_track_17\.mem_out\[1\]
*162 mem_bottom_track_25\.ccff_tail
*163 mem_bottom_track_25\.mem_out\[0\]
*164 mem_bottom_track_25\.mem_out\[1\]
*165 mem_bottom_track_3\.ccff_tail
*166 mem_bottom_track_3\.mem_out\[0\]
*167 mem_bottom_track_3\.mem_out\[1\]
*168 mem_bottom_track_3\.mem_out\[2\]
*169 mem_bottom_track_33\.ccff_tail
*170 mem_bottom_track_33\.mem_out\[0\]
*171 mem_bottom_track_33\.mem_out\[1\]
*172 mem_bottom_track_5\.ccff_tail
*173 mem_bottom_track_5\.mem_out\[0\]
*174 mem_bottom_track_5\.mem_out\[1\]
*175 mem_bottom_track_5\.mem_out\[2\]
*176 mem_bottom_track_9\.mem_out\[0\]
*177 mem_bottom_track_9\.mem_out\[1\]
*178 mem_bottom_track_9\.mem_out\[2\]
*179 mem_left_track_1\.ccff_tail
*180 mem_left_track_1\.mem_out\[0\]
*181 mem_left_track_1\.mem_out\[1\]
*182 mem_left_track_11\.ccff_head
*183 mem_left_track_11\.ccff_tail
*184 mem_left_track_11\.mem_out\[0\]
*185 mem_left_track_11\.mem_out\[1\]
*186 mem_left_track_13\.ccff_tail
*187 mem_left_track_13\.mem_out\[0\]
*188 mem_left_track_13\.mem_out\[1\]
*189 mem_left_track_15\.ccff_tail
*190 mem_left_track_15\.mem_out\[0\]
*191 mem_left_track_15\.mem_out\[1\]
*192 mem_left_track_17\.ccff_tail
*193 mem_left_track_17\.mem_out\[0\]
*194 mem_left_track_19\.ccff_tail
*195 mem_left_track_19\.mem_out\[0\]
*196 mem_left_track_21\.ccff_tail
*197 mem_left_track_21\.mem_out\[0\]
*198 mem_left_track_23\.ccff_tail
*199 mem_left_track_23\.mem_out\[0\]
*200 mem_left_track_25\.ccff_tail
*201 mem_left_track_25\.mem_out\[0\]
*202 mem_left_track_29\.ccff_tail
*203 mem_left_track_29\.mem_out\[0\]
*204 mem_left_track_3\.ccff_tail
*205 mem_left_track_3\.mem_out\[0\]
*206 mem_left_track_3\.mem_out\[1\]
*207 mem_left_track_31\.ccff_tail
*208 mem_left_track_31\.mem_out\[0\]
*209 mem_left_track_33\.ccff_tail
*210 mem_left_track_33\.mem_out\[0\]
*211 mem_left_track_35\.ccff_tail
*212 mem_left_track_35\.mem_out\[0\]
*213 mem_left_track_37\.ccff_tail
*214 mem_left_track_37\.mem_out\[0\]
*215 mem_left_track_39\.mem_out\[0\]
*216 mem_left_track_5\.ccff_tail
*217 mem_left_track_5\.mem_out\[0\]
*218 mem_left_track_5\.mem_out\[1\]
*219 mem_left_track_7\.ccff_tail
*220 mem_left_track_7\.mem_out\[0\]
*221 mem_left_track_7\.mem_out\[1\]
*222 mem_left_track_9\.mem_out\[0\]
*223 mem_left_track_9\.mem_out\[1\]
*224 mem_top_track_0\.ccff_tail
*225 mem_top_track_0\.mem_out\[0\]
*226 mem_top_track_0\.mem_out\[1\]
*227 mem_top_track_0\.mem_out\[2\]
*228 mem_top_track_16\.ccff_head
*229 mem_top_track_16\.ccff_tail
*230 mem_top_track_16\.mem_out\[0\]
*231 mem_top_track_16\.mem_out\[1\]
*232 mem_top_track_2\.ccff_tail
*233 mem_top_track_2\.mem_out\[0\]
*234 mem_top_track_2\.mem_out\[1\]
*235 mem_top_track_2\.mem_out\[2\]
*236 mem_top_track_24\.ccff_tail
*237 mem_top_track_24\.mem_out\[0\]
*238 mem_top_track_24\.mem_out\[1\]
*239 mem_top_track_32\.mem_out\[0\]
*240 mem_top_track_32\.mem_out\[1\]
*241 mem_top_track_4\.ccff_tail
*242 mem_top_track_4\.mem_out\[0\]
*243 mem_top_track_4\.mem_out\[1\]
*244 mem_top_track_4\.mem_out\[2\]
*245 mem_top_track_8\.mem_out\[0\]
*246 mem_top_track_8\.mem_out\[1\]
*247 mem_top_track_8\.mem_out\[2\]
*248 mux_bottom_track_1\.out
*249 mux_bottom_track_1\.sky130_fd_sc_hd__mux2_1_0_X
*250 mux_bottom_track_1\.sky130_fd_sc_hd__mux2_1_1_X
*251 mux_bottom_track_1\.sky130_fd_sc_hd__mux2_1_2_X
*252 mux_bottom_track_1\.sky130_fd_sc_hd__mux2_1_3_X
*253 mux_bottom_track_1\.sky130_fd_sc_hd__mux2_1_4_X
*254 mux_bottom_track_1\.sky130_fd_sc_hd__mux2_1_5_X
*255 mux_bottom_track_1\.sky130_fd_sc_hd__mux2_1_6_X
*256 mux_bottom_track_1\.sky130_fd_sc_hd__mux2_1_7_X
*257 mux_bottom_track_1\.sky130_fd_sc_hd__mux2_1_8_X
*258 mux_bottom_track_1\.sky130_fd_sc_hd__mux2_1_9_X
*259 mux_bottom_track_17\.out
*260 mux_bottom_track_17\.sky130_fd_sc_hd__mux2_1_0_X
*261 mux_bottom_track_17\.sky130_fd_sc_hd__mux2_1_1_X
*262 mux_bottom_track_17\.sky130_fd_sc_hd__mux2_1_2_X
*263 mux_bottom_track_17\.sky130_fd_sc_hd__mux2_1_3_X
*264 mux_bottom_track_17\.sky130_fd_sc_hd__mux2_1_4_X
*265 mux_bottom_track_17\.sky130_fd_sc_hd__mux2_1_5_X
*266 mux_bottom_track_17\.sky130_fd_sc_hd__mux2_1_6_X
*267 mux_bottom_track_25\.out
*268 mux_bottom_track_25\.sky130_fd_sc_hd__mux2_1_0_X
*269 mux_bottom_track_25\.sky130_fd_sc_hd__mux2_1_1_X
*270 mux_bottom_track_25\.sky130_fd_sc_hd__mux2_1_2_X
*271 mux_bottom_track_25\.sky130_fd_sc_hd__mux2_1_3_X
*272 mux_bottom_track_25\.sky130_fd_sc_hd__mux2_1_4_X
*273 mux_bottom_track_25\.sky130_fd_sc_hd__mux2_1_5_X
*274 mux_bottom_track_3\.out
*275 mux_bottom_track_3\.sky130_fd_sc_hd__mux2_1_0_X
*276 mux_bottom_track_3\.sky130_fd_sc_hd__mux2_1_1_X
*277 mux_bottom_track_3\.sky130_fd_sc_hd__mux2_1_2_X
*278 mux_bottom_track_3\.sky130_fd_sc_hd__mux2_1_3_X
*279 mux_bottom_track_3\.sky130_fd_sc_hd__mux2_1_4_X
*280 mux_bottom_track_3\.sky130_fd_sc_hd__mux2_1_5_X
*281 mux_bottom_track_3\.sky130_fd_sc_hd__mux2_1_6_X
*282 mux_bottom_track_3\.sky130_fd_sc_hd__mux2_1_7_X
*283 mux_bottom_track_3\.sky130_fd_sc_hd__mux2_1_8_X
*284 mux_bottom_track_33\.out
*285 mux_bottom_track_33\.sky130_fd_sc_hd__mux2_1_0_X
*286 mux_bottom_track_33\.sky130_fd_sc_hd__mux2_1_1_X
*287 mux_bottom_track_33\.sky130_fd_sc_hd__mux2_1_2_X
*288 mux_bottom_track_33\.sky130_fd_sc_hd__mux2_1_3_X
*289 mux_bottom_track_33\.sky130_fd_sc_hd__mux2_1_4_X
*290 mux_bottom_track_33\.sky130_fd_sc_hd__mux2_1_5_X
*291 mux_bottom_track_5\.out
*292 mux_bottom_track_5\.sky130_fd_sc_hd__mux2_1_0_X
*293 mux_bottom_track_5\.sky130_fd_sc_hd__mux2_1_10_X
*294 mux_bottom_track_5\.sky130_fd_sc_hd__mux2_1_11_X
*295 mux_bottom_track_5\.sky130_fd_sc_hd__mux2_1_12_X
*296 mux_bottom_track_5\.sky130_fd_sc_hd__mux2_1_13_X
*297 mux_bottom_track_5\.sky130_fd_sc_hd__mux2_1_1_X
*298 mux_bottom_track_5\.sky130_fd_sc_hd__mux2_1_2_X
*299 mux_bottom_track_5\.sky130_fd_sc_hd__mux2_1_3_X
*300 mux_bottom_track_5\.sky130_fd_sc_hd__mux2_1_4_X
*301 mux_bottom_track_5\.sky130_fd_sc_hd__mux2_1_5_X
*302 mux_bottom_track_5\.sky130_fd_sc_hd__mux2_1_6_X
*303 mux_bottom_track_5\.sky130_fd_sc_hd__mux2_1_7_X
*304 mux_bottom_track_5\.sky130_fd_sc_hd__mux2_1_8_X
*305 mux_bottom_track_5\.sky130_fd_sc_hd__mux2_1_9_X
*306 mux_bottom_track_9\.out
*307 mux_bottom_track_9\.sky130_fd_sc_hd__mux2_1_0_X
*308 mux_bottom_track_9\.sky130_fd_sc_hd__mux2_1_1_X
*309 mux_bottom_track_9\.sky130_fd_sc_hd__mux2_1_2_X
*310 mux_bottom_track_9\.sky130_fd_sc_hd__mux2_1_3_X
*311 mux_bottom_track_9\.sky130_fd_sc_hd__mux2_1_4_X
*312 mux_bottom_track_9\.sky130_fd_sc_hd__mux2_1_5_X
*313 mux_bottom_track_9\.sky130_fd_sc_hd__mux2_1_6_X
*314 mux_bottom_track_9\.sky130_fd_sc_hd__mux2_1_7_X
*315 mux_left_track_1\.out
*316 mux_left_track_1\.sky130_fd_sc_hd__mux2_1_0_X
*317 mux_left_track_1\.sky130_fd_sc_hd__mux2_1_1_X
*318 mux_left_track_1\.sky130_fd_sc_hd__mux2_1_2_X
*319 mux_left_track_1\.sky130_fd_sc_hd__mux2_1_3_X
*320 mux_left_track_1\.sky130_fd_sc_hd__mux2_1_4_X
*321 mux_left_track_1\.sky130_fd_sc_hd__mux2_1_5_X
*322 mux_left_track_1\.sky130_fd_sc_hd__mux2_1_6_X
*323 mux_left_track_11\.out
*324 mux_left_track_11\.sky130_fd_sc_hd__mux2_1_0_X
*325 mux_left_track_11\.sky130_fd_sc_hd__mux2_1_1_X
*326 mux_left_track_11\.sky130_fd_sc_hd__mux2_1_2_X
*327 mux_left_track_11\.sky130_fd_sc_hd__mux2_1_3_X
*328 mux_left_track_13\.out
*329 mux_left_track_13\.sky130_fd_sc_hd__mux2_1_0_X
*330 mux_left_track_13\.sky130_fd_sc_hd__mux2_1_1_X
*331 mux_left_track_13\.sky130_fd_sc_hd__mux2_1_2_X
*332 mux_left_track_13\.sky130_fd_sc_hd__mux2_1_3_X
*333 mux_left_track_15\.out
*334 mux_left_track_15\.sky130_fd_sc_hd__mux2_1_0_X
*335 mux_left_track_15\.sky130_fd_sc_hd__mux2_1_1_X
*336 mux_left_track_15\.sky130_fd_sc_hd__mux2_1_2_X
*337 mux_left_track_15\.sky130_fd_sc_hd__mux2_1_3_X
*338 mux_left_track_17\.out
*339 mux_left_track_17\.sky130_fd_sc_hd__mux2_1_0_X
*340 mux_left_track_17\.sky130_fd_sc_hd__mux2_1_1_X
*341 mux_left_track_17\.sky130_fd_sc_hd__mux2_1_2_X
*342 mux_left_track_19\.out
*343 mux_left_track_19\.sky130_fd_sc_hd__mux2_1_0_X
*344 mux_left_track_19\.sky130_fd_sc_hd__mux2_1_1_X
*345 mux_left_track_19\.sky130_fd_sc_hd__mux2_1_2_X
*346 mux_left_track_21\.out
*347 mux_left_track_21\.sky130_fd_sc_hd__mux2_1_0_X
*348 mux_left_track_21\.sky130_fd_sc_hd__mux2_1_1_X
*349 mux_left_track_21\.sky130_fd_sc_hd__mux2_1_2_X
*350 mux_left_track_23\.out
*351 mux_left_track_23\.sky130_fd_sc_hd__mux2_1_0_X
*352 mux_left_track_23\.sky130_fd_sc_hd__mux2_1_1_X
*353 mux_left_track_23\.sky130_fd_sc_hd__mux2_1_2_X
*354 mux_left_track_25\.out
*355 mux_left_track_25\.sky130_fd_sc_hd__mux2_1_0_X
*356 mux_left_track_25\.sky130_fd_sc_hd__mux2_1_1_X
*357 mux_left_track_25\.sky130_fd_sc_hd__mux2_1_2_X
*358 mux_left_track_29\.out
*359 mux_left_track_29\.sky130_fd_sc_hd__mux2_1_0_X
*360 mux_left_track_29\.sky130_fd_sc_hd__mux2_1_1_X
*361 mux_left_track_3\.out
*362 mux_left_track_3\.sky130_fd_sc_hd__mux2_1_0_X
*363 mux_left_track_3\.sky130_fd_sc_hd__mux2_1_1_X
*364 mux_left_track_3\.sky130_fd_sc_hd__mux2_1_2_X
*365 mux_left_track_3\.sky130_fd_sc_hd__mux2_1_3_X
*366 mux_left_track_3\.sky130_fd_sc_hd__mux2_1_4_X
*367 mux_left_track_3\.sky130_fd_sc_hd__mux2_1_5_X
*368 mux_left_track_3\.sky130_fd_sc_hd__mux2_1_6_X
*369 mux_left_track_31\.out
*370 mux_left_track_31\.sky130_fd_sc_hd__mux2_1_0_X
*371 mux_left_track_31\.sky130_fd_sc_hd__mux2_1_1_X
*372 mux_left_track_33\.out
*373 mux_left_track_33\.sky130_fd_sc_hd__mux2_1_0_X
*374 mux_left_track_33\.sky130_fd_sc_hd__mux2_1_1_X
*375 mux_left_track_35\.out
*376 mux_left_track_35\.sky130_fd_sc_hd__mux2_1_0_X
*377 mux_left_track_35\.sky130_fd_sc_hd__mux2_1_1_X
*378 mux_left_track_37\.out
*379 mux_left_track_37\.sky130_fd_sc_hd__mux2_1_0_X
*380 mux_left_track_37\.sky130_fd_sc_hd__mux2_1_1_X
*381 mux_left_track_39\.out
*382 mux_left_track_39\.sky130_fd_sc_hd__mux2_1_0_X
*383 mux_left_track_39\.sky130_fd_sc_hd__mux2_1_1_X
*384 mux_left_track_5\.out
*385 mux_left_track_5\.sky130_fd_sc_hd__mux2_1_0_X
*386 mux_left_track_5\.sky130_fd_sc_hd__mux2_1_1_X
*387 mux_left_track_5\.sky130_fd_sc_hd__mux2_1_2_X
*388 mux_left_track_5\.sky130_fd_sc_hd__mux2_1_3_X
*389 mux_left_track_5\.sky130_fd_sc_hd__mux2_1_4_X
*390 mux_left_track_5\.sky130_fd_sc_hd__mux2_1_5_X
*391 mux_left_track_5\.sky130_fd_sc_hd__mux2_1_6_X
*392 mux_left_track_7\.out
*393 mux_left_track_7\.sky130_fd_sc_hd__mux2_1_0_X
*394 mux_left_track_7\.sky130_fd_sc_hd__mux2_1_1_X
*395 mux_left_track_7\.sky130_fd_sc_hd__mux2_1_2_X
*396 mux_left_track_7\.sky130_fd_sc_hd__mux2_1_3_X
*397 mux_left_track_7\.sky130_fd_sc_hd__mux2_1_4_X
*398 mux_left_track_7\.sky130_fd_sc_hd__mux2_1_5_X
*399 mux_left_track_7\.sky130_fd_sc_hd__mux2_1_6_X
*400 mux_left_track_9\.out
*401 mux_left_track_9\.sky130_fd_sc_hd__mux2_1_0_X
*402 mux_left_track_9\.sky130_fd_sc_hd__mux2_1_1_X
*403 mux_left_track_9\.sky130_fd_sc_hd__mux2_1_2_X
*404 mux_left_track_9\.sky130_fd_sc_hd__mux2_1_3_X
*405 mux_top_track_0\.out
*406 mux_top_track_0\.sky130_fd_sc_hd__mux2_1_0_X
*407 mux_top_track_0\.sky130_fd_sc_hd__mux2_1_1_X
*408 mux_top_track_0\.sky130_fd_sc_hd__mux2_1_2_X
*409 mux_top_track_0\.sky130_fd_sc_hd__mux2_1_3_X
*410 mux_top_track_0\.sky130_fd_sc_hd__mux2_1_4_X
*411 mux_top_track_0\.sky130_fd_sc_hd__mux2_1_5_X
*412 mux_top_track_0\.sky130_fd_sc_hd__mux2_1_6_X
*413 mux_top_track_0\.sky130_fd_sc_hd__mux2_1_7_X
*414 mux_top_track_0\.sky130_fd_sc_hd__mux2_1_8_X
*415 mux_top_track_0\.sky130_fd_sc_hd__mux2_1_9_X
*416 mux_top_track_16\.out
*417 mux_top_track_16\.sky130_fd_sc_hd__mux2_1_0_X
*418 mux_top_track_16\.sky130_fd_sc_hd__mux2_1_1_X
*419 mux_top_track_16\.sky130_fd_sc_hd__mux2_1_2_X
*420 mux_top_track_16\.sky130_fd_sc_hd__mux2_1_3_X
*421 mux_top_track_16\.sky130_fd_sc_hd__mux2_1_4_X
*422 mux_top_track_16\.sky130_fd_sc_hd__mux2_1_5_X
*423 mux_top_track_16\.sky130_fd_sc_hd__mux2_1_6_X
*424 mux_top_track_2\.out
*425 mux_top_track_2\.sky130_fd_sc_hd__mux2_1_0_X
*426 mux_top_track_2\.sky130_fd_sc_hd__mux2_1_1_X
*427 mux_top_track_2\.sky130_fd_sc_hd__mux2_1_2_X
*428 mux_top_track_2\.sky130_fd_sc_hd__mux2_1_3_X
*429 mux_top_track_2\.sky130_fd_sc_hd__mux2_1_4_X
*430 mux_top_track_2\.sky130_fd_sc_hd__mux2_1_5_X
*431 mux_top_track_2\.sky130_fd_sc_hd__mux2_1_6_X
*432 mux_top_track_2\.sky130_fd_sc_hd__mux2_1_7_X
*433 mux_top_track_24\.out
*434 mux_top_track_24\.sky130_fd_sc_hd__mux2_1_0_X
*435 mux_top_track_24\.sky130_fd_sc_hd__mux2_1_1_X
*436 mux_top_track_24\.sky130_fd_sc_hd__mux2_1_2_X
*437 mux_top_track_24\.sky130_fd_sc_hd__mux2_1_3_X
*438 mux_top_track_24\.sky130_fd_sc_hd__mux2_1_4_X
*439 mux_top_track_24\.sky130_fd_sc_hd__mux2_1_5_X
*440 mux_top_track_24\.sky130_fd_sc_hd__mux2_1_6_X
*441 mux_top_track_32\.out
*442 mux_top_track_32\.sky130_fd_sc_hd__mux2_1_0_X
*443 mux_top_track_32\.sky130_fd_sc_hd__mux2_1_1_X
*444 mux_top_track_32\.sky130_fd_sc_hd__mux2_1_2_X
*445 mux_top_track_32\.sky130_fd_sc_hd__mux2_1_3_X
*446 mux_top_track_32\.sky130_fd_sc_hd__mux2_1_4_X
*447 mux_top_track_32\.sky130_fd_sc_hd__mux2_1_5_X
*448 mux_top_track_4\.out
*449 mux_top_track_4\.sky130_fd_sc_hd__mux2_1_0_X
*450 mux_top_track_4\.sky130_fd_sc_hd__mux2_1_10_X
*451 mux_top_track_4\.sky130_fd_sc_hd__mux2_1_11_X
*452 mux_top_track_4\.sky130_fd_sc_hd__mux2_1_12_X
*453 mux_top_track_4\.sky130_fd_sc_hd__mux2_1_13_X
*454 mux_top_track_4\.sky130_fd_sc_hd__mux2_1_1_X
*455 mux_top_track_4\.sky130_fd_sc_hd__mux2_1_2_X
*456 mux_top_track_4\.sky130_fd_sc_hd__mux2_1_3_X
*457 mux_top_track_4\.sky130_fd_sc_hd__mux2_1_4_X
*458 mux_top_track_4\.sky130_fd_sc_hd__mux2_1_5_X
*459 mux_top_track_4\.sky130_fd_sc_hd__mux2_1_6_X
*460 mux_top_track_4\.sky130_fd_sc_hd__mux2_1_7_X
*461 mux_top_track_4\.sky130_fd_sc_hd__mux2_1_8_X
*462 mux_top_track_4\.sky130_fd_sc_hd__mux2_1_9_X
*463 mux_top_track_8\.out
*464 mux_top_track_8\.sky130_fd_sc_hd__mux2_1_0_X
*465 mux_top_track_8\.sky130_fd_sc_hd__mux2_1_1_X
*466 mux_top_track_8\.sky130_fd_sc_hd__mux2_1_2_X
*467 mux_top_track_8\.sky130_fd_sc_hd__mux2_1_3_X
*468 mux_top_track_8\.sky130_fd_sc_hd__mux2_1_4_X
*469 mux_top_track_8\.sky130_fd_sc_hd__mux2_1_5_X
*470 mux_top_track_8\.sky130_fd_sc_hd__mux2_1_6_X
*471 mux_top_track_8\.sky130_fd_sc_hd__mux2_1_7_X
*472 net1
*473 net10
*474 net100
*475 net101
*476 net102
*477 net103
*478 net104
*479 net105
*480 net106
*481 net107
*482 net108
*483 net109
*484 net11
*485 net110
*486 net111
*487 net112
*488 net113
*489 net114
*490 net115
*491 net116
*492 net117
*493 net118
*494 net119
*495 net12
*496 net120
*497 net121
*498 net122
*499 net123
*500 net124
*501 net125
*502 net126
*503 net127
*504 net128
*505 net129
*506 net13
*507 net130
*508 net131
*509 net132
*510 net133
*511 net134
*512 net135
*513 net136
*514 net137
*515 net138
*516 net139
*517 net14
*518 net140
*519 net141
*520 net142
*521 net143
*522 net144
*523 net145
*524 net146
*525 net147
*526 net148
*527 net149
*528 net15
*529 net150
*530 net151
*531 net152
*532 net153
*533 net154
*534 net155
*535 net156
*536 net157
*537 net158
*538 net159
*539 net16
*540 net160
*541 net161
*542 net162
*543 net163
*544 net164
*545 net165
*546 net166
*547 net167
*548 net168
*549 net169
*550 net17
*551 net170
*552 net171
*553 net172
*554 net173
*555 net174
*556 net175
*557 net176
*558 net177
*559 net178
*560 net179
*561 net18
*562 net180
*563 net181
*564 net182
*565 net183
*566 net184
*567 net185
*568 net186
*569 net19
*570 net2
*571 net20
*572 net21
*573 net22
*574 net23
*575 net24
*576 net25
*577 net26
*578 net27
*579 net28
*580 net29
*581 net3
*582 net30
*583 net31
*584 net32
*585 net33
*586 net34
*587 net35
*588 net36
*589 net37
*590 net38
*591 net39
*592 net4
*593 net40
*594 net41
*595 net42
*596 net43
*597 net44
*598 net45
*599 net46
*600 net47
*601 net48
*602 net49
*603 net5
*604 net50
*605 net51
*606 net52
*607 net53
*608 net54
*609 net55
*610 net56
*611 net57
*612 net58
*613 net59
*614 net6
*615 net60
*616 net61
*617 net62
*618 net63
*619 net64
*620 net65
*621 net66
*622 net67
*623 net68
*624 net69
*625 net7
*626 net70
*627 net71
*628 net72
*629 net73
*630 net74
*631 net75
*632 net76
*633 net77
*634 net78
*635 net79
*636 net8
*637 net80
*638 net81
*639 net82
*640 net83
*641 net84
*642 net85
*643 net86
*644 net87
*645 net88
*646 net89
*647 net9
*648 net90
*649 net91
*650 net92
*651 net93
*652 net94
*653 net95
*654 net96
*655 net97
*656 net98
*657 net99
*658 ANTENNA__089__A
*659 ANTENNA__091__A
*660 ANTENNA__092__A
*661 ANTENNA__093__A
*662 ANTENNA__095__A
*663 ANTENNA__096__A
*664 ANTENNA__097__A
*665 ANTENNA__099__A
*666 ANTENNA__100__A
*667 ANTENNA__101__A
*668 ANTENNA__103__A
*669 ANTENNA__104__A
*670 ANTENNA__105__A
*671 ANTENNA__109__A
*672 ANTENNA__111__A
*673 ANTENNA__112__A
*674 ANTENNA__113__A
*675 ANTENNA__115__A
*676 ANTENNA__116__A
*677 ANTENNA__117__A
*678 ANTENNA__119__A
*679 ANTENNA__120__A
*680 ANTENNA__121__A
*681 ANTENNA__123__A
*682 ANTENNA__124__A
*683 ANTENNA__125__A
*684 ANTENNA_input10_A
*685 ANTENNA_input11_A
*686 ANTENNA_input12_A
*687 ANTENNA_input13_A
*688 ANTENNA_input14_A
*689 ANTENNA_input15_A
*690 ANTENNA_input16_A
*691 ANTENNA_input17_A
*692 ANTENNA_input18_A
*693 ANTENNA_input19_A
*694 ANTENNA_input1_A
*695 ANTENNA_input20_A
*696 ANTENNA_input21_A
*697 ANTENNA_input22_A
*698 ANTENNA_input23_A
*699 ANTENNA_input24_A
*700 ANTENNA_input25_A
*701 ANTENNA_input26_A
*702 ANTENNA_input27_A
*703 ANTENNA_input28_A
*704 ANTENNA_input29_A
*705 ANTENNA_input2_A
*706 ANTENNA_input30_A
*707 ANTENNA_input31_A
*708 ANTENNA_input32_A
*709 ANTENNA_input33_A
*710 ANTENNA_input34_A
*711 ANTENNA_input35_A
*712 ANTENNA_input36_A
*713 ANTENNA_input37_A
*714 ANTENNA_input38_A
*715 ANTENNA_input39_A
*716 ANTENNA_input3_A
*717 ANTENNA_input40_A
*718 ANTENNA_input41_A
*719 ANTENNA_input42_A
*720 ANTENNA_input43_A
*721 ANTENNA_input44_A
*722 ANTENNA_input45_A
*723 ANTENNA_input46_A
*724 ANTENNA_input47_A
*725 ANTENNA_input48_A
*726 ANTENNA_input49_A
*727 ANTENNA_input4_A
*728 ANTENNA_input50_A
*729 ANTENNA_input51_A
*730 ANTENNA_input52_A
*731 ANTENNA_input53_A
*732 ANTENNA_input54_A
*733 ANTENNA_input55_A
*734 ANTENNA_input56_A
*735 ANTENNA_input57_A
*736 ANTENNA_input58_A
*737 ANTENNA_input59_A
*738 ANTENNA_input5_A
*739 ANTENNA_input60_A
*740 ANTENNA_input61_A
*741 ANTENNA_input62_A
*742 ANTENNA_input63_A
*743 ANTENNA_input64_A
*744 ANTENNA_input65_A
*745 ANTENNA_input66_A
*746 ANTENNA_input67_A
*747 ANTENNA_input68_A
*748 ANTENNA_input69_A
*749 ANTENNA_input6_A
*750 ANTENNA_input70_A
*751 ANTENNA_input71_A
*752 ANTENNA_input72_A
*753 ANTENNA_input73_A
*754 ANTENNA_input74_A
*755 ANTENNA_input75_A
*756 ANTENNA_input76_A
*757 ANTENNA_input77_A
*758 ANTENNA_input78_A
*759 ANTENNA_input79_A
*760 ANTENNA_input7_A
*761 ANTENNA_input80_A
*762 ANTENNA_input81_A
*763 ANTENNA_input82_A
*764 ANTENNA_input83_A
*765 ANTENNA_input84_A
*766 ANTENNA_input85_A
*767 ANTENNA_input86_A
*768 ANTENNA_input87_A
*769 ANTENNA_input8_A
*770 ANTENNA_input9_A
*771 ANTENNA_mem_bottom_track_1\.sky130_fd_sc_hd__dfxtp_1_0__CLK
*772 ANTENNA_mem_bottom_track_1\.sky130_fd_sc_hd__dfxtp_1_1__CLK
*773 ANTENNA_mem_bottom_track_1\.sky130_fd_sc_hd__dfxtp_1_1__D
*774 ANTENNA_mem_bottom_track_1\.sky130_fd_sc_hd__dfxtp_1_2__CLK
*775 ANTENNA_mem_bottom_track_1\.sky130_fd_sc_hd__dfxtp_1_3__CLK
*776 ANTENNA_mem_bottom_track_17\.sky130_fd_sc_hd__dfxtp_1_0__CLK
*777 ANTENNA_mem_bottom_track_17\.sky130_fd_sc_hd__dfxtp_1_1__CLK
*778 ANTENNA_mem_bottom_track_17\.sky130_fd_sc_hd__dfxtp_1_1__D
*779 ANTENNA_mem_bottom_track_17\.sky130_fd_sc_hd__dfxtp_1_2__CLK
*780 ANTENNA_mem_bottom_track_25\.sky130_fd_sc_hd__dfxtp_1_0__CLK
*781 ANTENNA_mem_bottom_track_25\.sky130_fd_sc_hd__dfxtp_1_1__CLK
*782 ANTENNA_mem_bottom_track_25\.sky130_fd_sc_hd__dfxtp_1_1__D
*783 ANTENNA_mem_bottom_track_25\.sky130_fd_sc_hd__dfxtp_1_2__CLK
*784 ANTENNA_mem_bottom_track_3\.sky130_fd_sc_hd__dfxtp_1_0__CLK
*785 ANTENNA_mem_bottom_track_3\.sky130_fd_sc_hd__dfxtp_1_1__CLK
*786 ANTENNA_mem_bottom_track_3\.sky130_fd_sc_hd__dfxtp_1_2__CLK
*787 ANTENNA_mem_bottom_track_3\.sky130_fd_sc_hd__dfxtp_1_3__CLK
*788 ANTENNA_mem_bottom_track_33\.sky130_fd_sc_hd__dfxtp_1_0__CLK
*789 ANTENNA_mem_bottom_track_33\.sky130_fd_sc_hd__dfxtp_1_1__CLK
*790 ANTENNA_mem_bottom_track_33\.sky130_fd_sc_hd__dfxtp_1_1__D
*791 ANTENNA_mem_bottom_track_33\.sky130_fd_sc_hd__dfxtp_1_2__CLK
*792 ANTENNA_mem_bottom_track_5\.sky130_fd_sc_hd__dfxtp_1_0__CLK
*793 ANTENNA_mem_bottom_track_5\.sky130_fd_sc_hd__dfxtp_1_1__CLK
*794 ANTENNA_mem_bottom_track_5\.sky130_fd_sc_hd__dfxtp_1_2__CLK
*795 ANTENNA_mem_bottom_track_5\.sky130_fd_sc_hd__dfxtp_1_3__CLK
*796 ANTENNA_mem_bottom_track_9\.sky130_fd_sc_hd__dfxtp_1_0__CLK
*797 ANTENNA_mem_bottom_track_9\.sky130_fd_sc_hd__dfxtp_1_1__CLK
*798 ANTENNA_mem_bottom_track_9\.sky130_fd_sc_hd__dfxtp_1_2__CLK
*799 ANTENNA_mem_bottom_track_9\.sky130_fd_sc_hd__dfxtp_1_2__D
*800 ANTENNA_mem_bottom_track_9\.sky130_fd_sc_hd__dfxtp_1_3__CLK
*801 ANTENNA_mem_left_track_1\.sky130_fd_sc_hd__dfxtp_1_0__CLK
*802 ANTENNA_mem_left_track_1\.sky130_fd_sc_hd__dfxtp_1_1__CLK
*803 ANTENNA_mem_left_track_1\.sky130_fd_sc_hd__dfxtp_1_1__D
*804 ANTENNA_mem_left_track_1\.sky130_fd_sc_hd__dfxtp_1_2__CLK
*805 ANTENNA_mem_left_track_11\.sky130_fd_sc_hd__dfxtp_1_0__CLK
*806 ANTENNA_mem_left_track_11\.sky130_fd_sc_hd__dfxtp_1_1__CLK
*807 ANTENNA_mem_left_track_11\.sky130_fd_sc_hd__dfxtp_1_2__CLK
*808 ANTENNA_mem_left_track_13\.sky130_fd_sc_hd__dfxtp_1_0__CLK
*809 ANTENNA_mem_left_track_13\.sky130_fd_sc_hd__dfxtp_1_1__CLK
*810 ANTENNA_mem_left_track_13\.sky130_fd_sc_hd__dfxtp_1_2__CLK
*811 ANTENNA_mem_left_track_15\.sky130_fd_sc_hd__dfxtp_1_0__CLK
*812 ANTENNA_mem_left_track_15\.sky130_fd_sc_hd__dfxtp_1_1__CLK
*813 ANTENNA_mem_left_track_15\.sky130_fd_sc_hd__dfxtp_1_2__CLK
*814 ANTENNA_mem_left_track_17\.sky130_fd_sc_hd__dfxtp_1_0__CLK
*815 ANTENNA_mem_left_track_17\.sky130_fd_sc_hd__dfxtp_1_1__CLK
*816 ANTENNA_mem_left_track_19\.sky130_fd_sc_hd__dfxtp_1_0__CLK
*817 ANTENNA_mem_left_track_19\.sky130_fd_sc_hd__dfxtp_1_1__CLK
*818 ANTENNA_mem_left_track_21\.sky130_fd_sc_hd__dfxtp_1_0__CLK
*819 ANTENNA_mem_left_track_21\.sky130_fd_sc_hd__dfxtp_1_1__CLK
*820 ANTENNA_mem_left_track_23\.sky130_fd_sc_hd__dfxtp_1_0__CLK
*821 ANTENNA_mem_left_track_23\.sky130_fd_sc_hd__dfxtp_1_1__CLK
*822 ANTENNA_mem_left_track_25\.sky130_fd_sc_hd__dfxtp_1_0__CLK
*823 ANTENNA_mem_left_track_25\.sky130_fd_sc_hd__dfxtp_1_1__CLK
*824 ANTENNA_mem_left_track_29\.sky130_fd_sc_hd__dfxtp_1_0__CLK
*825 ANTENNA_mem_left_track_29\.sky130_fd_sc_hd__dfxtp_1_1__CLK
*826 ANTENNA_mem_left_track_3\.sky130_fd_sc_hd__dfxtp_1_0__CLK
*827 ANTENNA_mem_left_track_3\.sky130_fd_sc_hd__dfxtp_1_1__CLK
*828 ANTENNA_mem_left_track_3\.sky130_fd_sc_hd__dfxtp_1_1__D
*829 ANTENNA_mem_left_track_3\.sky130_fd_sc_hd__dfxtp_1_2__CLK
*830 ANTENNA_mem_left_track_31\.sky130_fd_sc_hd__dfxtp_1_0__CLK
*831 ANTENNA_mem_left_track_31\.sky130_fd_sc_hd__dfxtp_1_1__CLK
*832 ANTENNA_mem_left_track_33\.sky130_fd_sc_hd__dfxtp_1_0__CLK
*833 ANTENNA_mem_left_track_33\.sky130_fd_sc_hd__dfxtp_1_1__CLK
*834 ANTENNA_mem_left_track_35\.sky130_fd_sc_hd__dfxtp_1_0__CLK
*835 ANTENNA_mem_left_track_35\.sky130_fd_sc_hd__dfxtp_1_1__CLK
*836 ANTENNA_mem_left_track_37\.sky130_fd_sc_hd__dfxtp_1_0__CLK
*837 ANTENNA_mem_left_track_37\.sky130_fd_sc_hd__dfxtp_1_1__CLK
*838 ANTENNA_mem_left_track_39\.sky130_fd_sc_hd__dfxtp_1_0__CLK
*839 ANTENNA_mem_left_track_39\.sky130_fd_sc_hd__dfxtp_1_1__CLK
*840 ANTENNA_mem_left_track_5\.sky130_fd_sc_hd__dfxtp_1_0__CLK
*841 ANTENNA_mem_left_track_5\.sky130_fd_sc_hd__dfxtp_1_1__CLK
*842 ANTENNA_mem_left_track_5\.sky130_fd_sc_hd__dfxtp_1_2__CLK
*843 ANTENNA_mem_left_track_7\.sky130_fd_sc_hd__dfxtp_1_0__CLK
*844 ANTENNA_mem_left_track_7\.sky130_fd_sc_hd__dfxtp_1_1__CLK
*845 ANTENNA_mem_left_track_7\.sky130_fd_sc_hd__dfxtp_1_2__CLK
*846 ANTENNA_mem_left_track_9\.sky130_fd_sc_hd__dfxtp_1_0__CLK
*847 ANTENNA_mem_left_track_9\.sky130_fd_sc_hd__dfxtp_1_1__CLK
*848 ANTENNA_mem_left_track_9\.sky130_fd_sc_hd__dfxtp_1_2__CLK
*849 ANTENNA_mem_top_track_0\.sky130_fd_sc_hd__dfxtp_1_0__CLK
*850 ANTENNA_mem_top_track_0\.sky130_fd_sc_hd__dfxtp_1_1__CLK
*851 ANTENNA_mem_top_track_0\.sky130_fd_sc_hd__dfxtp_1_2__CLK
*852 ANTENNA_mem_top_track_0\.sky130_fd_sc_hd__dfxtp_1_2__D
*853 ANTENNA_mem_top_track_0\.sky130_fd_sc_hd__dfxtp_1_3__CLK
*854 ANTENNA_mem_top_track_16\.sky130_fd_sc_hd__dfxtp_1_0__CLK
*855 ANTENNA_mem_top_track_16\.sky130_fd_sc_hd__dfxtp_1_1__CLK
*856 ANTENNA_mem_top_track_16\.sky130_fd_sc_hd__dfxtp_1_1__D
*857 ANTENNA_mem_top_track_16\.sky130_fd_sc_hd__dfxtp_1_2__CLK
*858 ANTENNA_mem_top_track_2\.sky130_fd_sc_hd__dfxtp_1_0__CLK
*859 ANTENNA_mem_top_track_2\.sky130_fd_sc_hd__dfxtp_1_1__CLK
*860 ANTENNA_mem_top_track_2\.sky130_fd_sc_hd__dfxtp_1_2__CLK
*861 ANTENNA_mem_top_track_2\.sky130_fd_sc_hd__dfxtp_1_3__CLK
*862 ANTENNA_mem_top_track_24\.sky130_fd_sc_hd__dfxtp_1_0__CLK
*863 ANTENNA_mem_top_track_24\.sky130_fd_sc_hd__dfxtp_1_1__CLK
*864 ANTENNA_mem_top_track_24\.sky130_fd_sc_hd__dfxtp_1_1__D
*865 ANTENNA_mem_top_track_24\.sky130_fd_sc_hd__dfxtp_1_2__CLK
*866 ANTENNA_mem_top_track_32\.sky130_fd_sc_hd__dfxtp_1_0__CLK
*867 ANTENNA_mem_top_track_32\.sky130_fd_sc_hd__dfxtp_1_1__CLK
*868 ANTENNA_mem_top_track_32\.sky130_fd_sc_hd__dfxtp_1_2__CLK
*869 ANTENNA_mem_top_track_4\.sky130_fd_sc_hd__dfxtp_1_0__CLK
*870 ANTENNA_mem_top_track_4\.sky130_fd_sc_hd__dfxtp_1_1__CLK
*871 ANTENNA_mem_top_track_4\.sky130_fd_sc_hd__dfxtp_1_2__CLK
*872 ANTENNA_mem_top_track_4\.sky130_fd_sc_hd__dfxtp_1_3__CLK
*873 ANTENNA_mem_top_track_8\.sky130_fd_sc_hd__dfxtp_1_0__CLK
*874 ANTENNA_mem_top_track_8\.sky130_fd_sc_hd__dfxtp_1_1__CLK
*875 ANTENNA_mem_top_track_8\.sky130_fd_sc_hd__dfxtp_1_2__CLK
*876 ANTENNA_mem_top_track_8\.sky130_fd_sc_hd__dfxtp_1_2__D
*877 ANTENNA_mem_top_track_8\.sky130_fd_sc_hd__dfxtp_1_3__CLK
*878 ANTENNA_mux_bottom_track_1\.mux_l1_in_0__A0
*879 ANTENNA_mux_bottom_track_1\.mux_l1_in_0__A1
*880 ANTENNA_mux_bottom_track_1\.mux_l1_in_0__S
*881 ANTENNA_mux_bottom_track_1\.mux_l1_in_1__S
*882 ANTENNA_mux_bottom_track_1\.mux_l1_in_2__S
*883 ANTENNA_mux_bottom_track_17\.mux_l1_in_0__A0
*884 ANTENNA_mux_bottom_track_17\.mux_l1_in_0__A1
*885 ANTENNA_mux_bottom_track_17\.mux_l1_in_0__S
*886 ANTENNA_mux_bottom_track_17\.mux_l1_in_1__S
*887 ANTENNA_mux_bottom_track_17\.mux_l1_in_2__S