*SPEF "ieee 1481-1999"
*DESIGN "sb_2__0_"
*DATE "11:11:11 Fri 11 11, 1111"
*VENDOR "OpenRCX"
*PROGRAM "Parallel Extraction"
*VERSION "1.0"
*DESIGN_FLOW "NAME_SCOPE LOCAL" "PIN_CAP NONE"
*DIVIDER /
*DELIMITER :
*BUS_DELIMITER []
*T_UNIT 1 NS
*C_UNIT 1 PF
*R_UNIT 1 OHM
*L_UNIT 1 HENRY

*NAME_MAP
*3 ccff_head
*4 ccff_tail
*5 chanx_left_in[0]
*6 chanx_left_in[10]
*7 chanx_left_in[11]
*8 chanx_left_in[12]
*9 chanx_left_in[13]
*10 chanx_left_in[14]
*11 chanx_left_in[15]
*12 chanx_left_in[16]
*13 chanx_left_in[17]
*14 chanx_left_in[18]
*15 chanx_left_in[19]
*16 chanx_left_in[1]
*17 chanx_left_in[2]
*18 chanx_left_in[3]
*19 chanx_left_in[4]
*20 chanx_left_in[5]
*21 chanx_left_in[6]
*22 chanx_left_in[7]
*23 chanx_left_in[8]
*24 chanx_left_in[9]
*25 chanx_left_out[0]
*26 chanx_left_out[10]
*27 chanx_left_out[11]
*28 chanx_left_out[12]
*29 chanx_left_out[13]
*30 chanx_left_out[14]
*31 chanx_left_out[15]
*32 chanx_left_out[16]
*33 chanx_left_out[17]
*34 chanx_left_out[18]
*35 chanx_left_out[19]
*36 chanx_left_out[1]
*37 chanx_left_out[2]
*38 chanx_left_out[3]
*39 chanx_left_out[4]
*40 chanx_left_out[5]
*41 chanx_left_out[6]
*42 chanx_left_out[7]
*43 chanx_left_out[8]
*44 chanx_left_out[9]
*45 chany_top_in[0]
*46 chany_top_in[10]
*47 chany_top_in[11]
*48 chany_top_in[12]
*49 chany_top_in[13]
*50 chany_top_in[14]
*51 chany_top_in[15]
*52 chany_top_in[16]
*53 chany_top_in[17]
*54 chany_top_in[18]
*55 chany_top_in[19]
*56 chany_top_in[1]
*57 chany_top_in[2]
*58 chany_top_in[3]
*59 chany_top_in[4]
*60 chany_top_in[5]
*61 chany_top_in[6]
*62 chany_top_in[7]
*63 chany_top_in[8]
*64 chany_top_in[9]
*65 chany_top_out[0]
*66 chany_top_out[10]
*67 chany_top_out[11]
*68 chany_top_out[12]
*69 chany_top_out[13]
*70 chany_top_out[14]
*71 chany_top_out[15]
*72 chany_top_out[16]
*73 chany_top_out[17]
*74 chany_top_out[18]
*75 chany_top_out[19]
*76 chany_top_out[1]
*77 chany_top_out[2]
*78 chany_top_out[3]
*79 chany_top_out[4]
*80 chany_top_out[5]
*81 chany_top_out[6]
*82 chany_top_out[7]
*83 chany_top_out[8]
*84 chany_top_out[9]
*85 left_bottom_grid_pin_11_
*86 left_bottom_grid_pin_13_
*87 left_bottom_grid_pin_15_
*88 left_bottom_grid_pin_17_
*89 left_bottom_grid_pin_1_
*90 left_bottom_grid_pin_3_
*91 left_bottom_grid_pin_5_
*92 left_bottom_grid_pin_7_
*93 left_bottom_grid_pin_9_
*94 prog_clk_0_N_in
*95 top_left_grid_pin_42_
*96 top_left_grid_pin_43_
*97 top_left_grid_pin_44_
*98 top_left_grid_pin_45_
*99 top_left_grid_pin_46_
*100 top_left_grid_pin_47_
*101 top_left_grid_pin_48_
*102 top_left_grid_pin_49_
*103 top_right_grid_pin_1_
*104 _000_
*105 _001_
*106 _002_
*107 _003_
*108 _004_
*109 _005_
*110 _006_
*111 _007_
*112 _008_
*113 _009_
*114 _010_
*115 _011_
*116 _012_
*117 _013_
*118 _014_
*119 _015_
*120 _016_
*121 _017_
*122 _018_
*123 _019_
*124 _020_
*125 _021_
*126 _022_
*127 _023_
*128 _024_
*129 _025_
*130 _026_
*131 _027_
*132 _028_
*133 _029_
*134 _030_
*135 _031_
*136 _032_
*137 _033_
*138 mem_left_track_1\.ccff_head
*139 mem_left_track_1\.ccff_tail
*140 mem_left_track_1\.mem_out\[0\]
*141 mem_left_track_1\.mem_out\[1\]
*142 mem_left_track_1\.prog_clk
*143 mem_left_track_11\.ccff_head
*144 mem_left_track_11\.ccff_tail
*145 mem_left_track_11\.mem_out\[0\]
*146 mem_left_track_13\.ccff_tail
*147 mem_left_track_13\.mem_out\[0\]
*148 mem_left_track_15\.ccff_tail
*149 mem_left_track_15\.mem_out\[0\]
*150 mem_left_track_17\.ccff_tail
*151 mem_left_track_17\.mem_out\[0\]
*152 mem_left_track_19\.ccff_tail
*153 mem_left_track_19\.mem_out\[0\]
*154 mem_left_track_21\.ccff_tail
*155 mem_left_track_21\.mem_out\[0\]
*156 mem_left_track_23\.ccff_tail
*157 mem_left_track_23\.mem_out\[0\]
*158 mem_left_track_25\.ccff_tail
*159 mem_left_track_25\.mem_out\[0\]
*160 mem_left_track_27\.ccff_tail
*161 mem_left_track_27\.mem_out\[0\]
*162 mem_left_track_29\.ccff_tail
*163 mem_left_track_29\.mem_out\[0\]
*164 mem_left_track_3\.ccff_tail
*165 mem_left_track_3\.mem_out\[0\]
*166 mem_left_track_3\.mem_out\[1\]
*167 mem_left_track_31\.ccff_tail
*168 mem_left_track_31\.mem_out\[0\]
*169 mem_left_track_33\.ccff_tail
*170 mem_left_track_33\.mem_out\[0\]
*171 mem_left_track_35\.ccff_tail
*172 mem_left_track_35\.mem_out\[0\]
*173 mem_left_track_37\.ccff_tail
*174 mem_left_track_37\.mem_out\[0\]
*175 mem_left_track_39\.mem_out\[0\]
*176 mem_left_track_5\.ccff_tail
*177 mem_left_track_5\.mem_out\[0\]
*178 mem_left_track_5\.mem_out\[1\]
*179 mem_left_track_7\.ccff_tail
*180 mem_left_track_7\.mem_out\[0\]
*181 mem_left_track_7\.mem_out\[1\]
*182 mem_left_track_9\.mem_out\[0\]
*183 mem_top_track_0\.ccff_tail
*184 mem_top_track_0\.mem_out\[0\]
*185 mem_top_track_0\.mem_out\[1\]
*186 mem_top_track_10\.ccff_head
*187 mem_top_track_10\.ccff_tail
*188 mem_top_track_10\.mem_out\[0\]
*189 mem_top_track_12\.ccff_tail
*190 mem_top_track_12\.mem_out\[0\]
*191 mem_top_track_14\.ccff_tail
*192 mem_top_track_14\.mem_out\[0\]
*193 mem_top_track_16\.ccff_tail
*194 mem_top_track_16\.mem_out\[0\]
*195 mem_top_track_18\.ccff_tail
*196 mem_top_track_18\.mem_out\[0\]
*197 mem_top_track_2\.ccff_tail
*198 mem_top_track_2\.mem_out\[0\]
*199 mem_top_track_2\.mem_out\[1\]
*200 mem_top_track_20\.ccff_tail
*201 mem_top_track_20\.mem_out\[0\]
*202 mem_top_track_22\.ccff_tail
*203 mem_top_track_22\.mem_out\[0\]
*204 mem_top_track_24\.ccff_tail
*205 mem_top_track_24\.mem_out\[0\]
*206 mem_top_track_26\.mem_out\[0\]
*207 mem_top_track_4\.ccff_tail
*208 mem_top_track_4\.mem_out\[0\]
*209 mem_top_track_4\.mem_out\[1\]
*210 mem_top_track_6\.ccff_tail
*211 mem_top_track_6\.mem_out\[0\]
*212 mem_top_track_6\.mem_out\[1\]
*213 mem_top_track_8\.mem_out\[0\]
*214 mux_left_track_1\.out
*215 mux_left_track_1\.sky130_fd_sc_hd__mux2_1_0_X
*216 mux_left_track_1\.sky130_fd_sc_hd__mux2_1_1_X
*217 mux_left_track_1\.sky130_fd_sc_hd__mux2_1_2_X
*218 mux_left_track_1\.sky130_fd_sc_hd__mux2_1_3_X
*219 mux_left_track_1\.sky130_fd_sc_hd__mux2_1_4_X
*220 mux_left_track_1\.sky130_fd_sc_hd__mux2_1_5_X
*221 mux_left_track_11\.out
*222 mux_left_track_11\.sky130_fd_sc_hd__mux2_1_0_X
*223 mux_left_track_11\.sky130_fd_sc_hd__mux2_1_1_X
*224 mux_left_track_13\.out
*225 mux_left_track_13\.sky130_fd_sc_hd__mux2_1_0_X
*226 mux_left_track_13\.sky130_fd_sc_hd__mux2_1_1_X
*227 mux_left_track_15\.out
*228 mux_left_track_15\.sky130_fd_sc_hd__mux2_1_0_X
*229 mux_left_track_15\.sky130_fd_sc_hd__mux2_1_1_X
*230 mux_left_track_17\.out
*231 mux_left_track_17\.sky130_fd_sc_hd__mux2_1_0_X
*232 mux_left_track_17\.sky130_fd_sc_hd__mux2_1_1_X
*233 mux_left_track_19\.out
*234 mux_left_track_19\.sky130_fd_sc_hd__mux2_1_0_X
*235 mux_left_track_19\.sky130_fd_sc_hd__mux2_1_1_X
*236 mux_left_track_21\.out
*237 mux_left_track_21\.sky130_fd_sc_hd__mux2_1_0_X
*238 mux_left_track_21\.sky130_fd_sc_hd__mux2_1_1_X
*239 mux_left_track_23\.out
*240 mux_left_track_23\.sky130_fd_sc_hd__mux2_1_0_X
*241 mux_left_track_23\.sky130_fd_sc_hd__mux2_1_1_X
*242 mux_left_track_25\.out
*243 mux_left_track_25\.sky130_fd_sc_hd__mux2_1_0_X
*244 mux_left_track_25\.sky130_fd_sc_hd__mux2_1_1_X
*245 mux_left_track_25\.sky130_fd_sc_hd__mux2_1_2_X
*246 mux_left_track_27\.out
*247 mux_left_track_27\.sky130_fd_sc_hd__mux2_1_0_X
*248 mux_left_track_27\.sky130_fd_sc_hd__mux2_1_1_X
*249 mux_left_track_29\.out
*250 mux_left_track_29\.sky130_fd_sc_hd__mux2_1_0_X
*251 mux_left_track_29\.sky130_fd_sc_hd__mux2_1_1_X
*252 mux_left_track_3\.out
*253 mux_left_track_3\.sky130_fd_sc_hd__mux2_1_0_X
*254 mux_left_track_3\.sky130_fd_sc_hd__mux2_1_1_X
*255 mux_left_track_3\.sky130_fd_sc_hd__mux2_1_2_X
*256 mux_left_track_3\.sky130_fd_sc_hd__mux2_1_3_X
*257 mux_left_track_3\.sky130_fd_sc_hd__mux2_1_4_X
*258 mux_left_track_31\.out
*259 mux_left_track_31\.sky130_fd_sc_hd__mux2_1_0_X
*260 mux_left_track_31\.sky130_fd_sc_hd__mux2_1_1_X
*261 mux_left_track_33\.out
*262 mux_left_track_33\.sky130_fd_sc_hd__mux2_1_0_X
*263 mux_left_track_33\.sky130_fd_sc_hd__mux2_1_1_X
*264 mux_left_track_35\.out
*265 mux_left_track_35\.sky130_fd_sc_hd__mux2_1_0_X
*266 mux_left_track_35\.sky130_fd_sc_hd__mux2_1_1_X
*267 mux_left_track_37\.out
*268 mux_left_track_37\.sky130_fd_sc_hd__mux2_1_0_X
*269 mux_left_track_37\.sky130_fd_sc_hd__mux2_1_1_X
*270 mux_left_track_39\.out
*271 mux_left_track_39\.sky130_fd_sc_hd__mux2_1_0_X
*272 mux_left_track_39\.sky130_fd_sc_hd__mux2_1_1_X
*273 mux_left_track_5\.out
*274 mux_left_track_5\.sky130_fd_sc_hd__mux2_1_0_X
*275 mux_left_track_5\.sky130_fd_sc_hd__mux2_1_1_X
*276 mux_left_track_5\.sky130_fd_sc_hd__mux2_1_2_X
*277 mux_left_track_5\.sky130_fd_sc_hd__mux2_1_3_X
*278 mux_left_track_5\.sky130_fd_sc_hd__mux2_1_4_X
*279 mux_left_track_5\.sky130_fd_sc_hd__mux2_1_5_X
*280 mux_left_track_7\.out
*281 mux_left_track_7\.sky130_fd_sc_hd__mux2_1_0_X
*282 mux_left_track_7\.sky130_fd_sc_hd__mux2_1_1_X
*283 mux_left_track_7\.sky130_fd_sc_hd__mux2_1_2_X
*284 mux_left_track_7\.sky130_fd_sc_hd__mux2_1_3_X
*285 mux_left_track_7\.sky130_fd_sc_hd__mux2_1_4_X
*286 mux_left_track_9\.out
*287 mux_left_track_9\.sky130_fd_sc_hd__mux2_1_0_X
*288 mux_left_track_9\.sky130_fd_sc_hd__mux2_1_1_X
*289 mux_left_track_9\.sky130_fd_sc_hd__mux2_1_2_X
*290 mux_top_track_0\.out
*291 mux_top_track_0\.sky130_fd_sc_hd__mux2_1_0_X
*292 mux_top_track_0\.sky130_fd_sc_hd__mux2_1_1_X
*293 mux_top_track_0\.sky130_fd_sc_hd__mux2_1_2_X
*294 mux_top_track_0\.sky130_fd_sc_hd__mux2_1_3_X
*295 mux_top_track_0\.sky130_fd_sc_hd__mux2_1_4_X
*296 mux_top_track_0\.sky130_fd_sc_hd__mux2_1_5_X
*297 mux_top_track_10\.out
*298 mux_top_track_10\.sky130_fd_sc_hd__mux2_1_0_X
*299 mux_top_track_10\.sky130_fd_sc_hd__mux2_1_1_X
*300 mux_top_track_12\.out
*301 mux_top_track_12\.sky130_fd_sc_hd__mux2_1_0_X
*302 mux_top_track_12\.sky130_fd_sc_hd__mux2_1_1_X
*303 mux_top_track_14\.out
*304 mux_top_track_14\.sky130_fd_sc_hd__mux2_1_0_X
*305 mux_top_track_14\.sky130_fd_sc_hd__mux2_1_1_X
*306 mux_top_track_16\.out
*307 mux_top_track_16\.sky130_fd_sc_hd__mux2_1_0_X
*308 mux_top_track_16\.sky130_fd_sc_hd__mux2_1_1_X
*309 mux_top_track_18\.out
*310 mux_top_track_18\.sky130_fd_sc_hd__mux2_1_0_X
*311 mux_top_track_18\.sky130_fd_sc_hd__mux2_1_1_X
*312 mux_top_track_2\.out
*313 mux_top_track_2\.sky130_fd_sc_hd__mux2_1_0_X
*314 mux_top_track_2\.sky130_fd_sc_hd__mux2_1_1_X
*315 mux_top_track_2\.sky130_fd_sc_hd__mux2_1_2_X
*316 mux_top_track_2\.sky130_fd_sc_hd__mux2_1_3_X
*317 mux_top_track_2\.sky130_fd_sc_hd__mux2_1_4_X
*318 mux_top_track_20\.out
*319 mux_top_track_20\.sky130_fd_sc_hd__mux2_1_0_X
*320 mux_top_track_20\.sky130_fd_sc_hd__mux2_1_1_X
*321 mux_top_track_22\.out
*322 mux_top_track_22\.sky130_fd_sc_hd__mux2_1_0_X
*323 mux_top_track_22\.sky130_fd_sc_hd__mux2_1_1_X
*324 mux_top_track_24\.out
*325 mux_top_track_24\.sky130_fd_sc_hd__mux2_1_0_X
*326 mux_top_track_24\.sky130_fd_sc_hd__mux2_1_1_X
*327 mux_top_track_24\.sky130_fd_sc_hd__mux2_1_2_X
*328 mux_top_track_26\.out
*329 mux_top_track_26\.sky130_fd_sc_hd__mux2_1_0_X
*330 mux_top_track_26\.sky130_fd_sc_hd__mux2_1_1_X
*331 mux_top_track_4\.out
*332 mux_top_track_4\.sky130_fd_sc_hd__mux2_1_0_X
*333 mux_top_track_4\.sky130_fd_sc_hd__mux2_1_1_X
*334 mux_top_track_4\.sky130_fd_sc_hd__mux2_1_2_X
*335 mux_top_track_4\.sky130_fd_sc_hd__mux2_1_3_X
*336 mux_top_track_4\.sky130_fd_sc_hd__mux2_1_4_X
*337 mux_top_track_4\.sky130_fd_sc_hd__mux2_1_5_X
*338 mux_top_track_6\.out
*339 mux_top_track_6\.sky130_fd_sc_hd__mux2_1_0_X
*340 mux_top_track_6\.sky130_fd_sc_hd__mux2_1_1_X
*341 mux_top_track_6\.sky130_fd_sc_hd__mux2_1_2_X
*342 mux_top_track_6\.sky130_fd_sc_hd__mux2_1_3_X
*343 mux_top_track_6\.sky130_fd_sc_hd__mux2_1_4_X
*344 mux_top_track_8\.out
*345 mux_top_track_8\.sky130_fd_sc_hd__mux2_1_0_X
*346 mux_top_track_8\.sky130_fd_sc_hd__mux2_1_1_X
*347 mux_top_track_8\.sky130_fd_sc_hd__mux2_1_2_X
*348 ANTENNA__102__A
*349 ANTENNA__103__A
*350 ANTENNA__104__A
*351 ANTENNA__105__A
*352 ANTENNA__106__A
*353 ANTENNA__107__A
*354 ANTENNA_mem_left_track_1\.sky130_fd_sc_hd__dfxtp_1_0__CLK
*355 ANTENNA_mem_left_track_1\.sky130_fd_sc_hd__dfxtp_1_1__CLK
*356 ANTENNA_mem_left_track_1\.sky130_fd_sc_hd__dfxtp_1_1__D
*357 ANTENNA_mem_left_track_1\.sky130_fd_sc_hd__dfxtp_1_2__CLK
*358 ANTENNA_mem_left_track_1\.sky130_fd_sc_hd__dfxtp_1_2__D
*359 ANTENNA_mem_left_track_11\.sky130_fd_sc_hd__dfxtp_1_0__CLK
*360 ANTENNA_mem_left_track_11\.sky130_fd_sc_hd__dfxtp_1_1__CLK
*361 ANTENNA_mem_left_track_13\.sky130_fd_sc_hd__dfxtp_1_0__CLK
*362 ANTENNA_mem_left_track_13\.sky130_fd_sc_hd__dfxtp_1_1__CLK
*363 ANTENNA_mem_left_track_15\.sky130_fd_sc_hd__dfxtp_1_0__CLK
*364 ANTENNA_mem_left_track_15\.sky130_fd_sc_hd__dfxtp_1_1__CLK
*365 ANTENNA_mem_left_track_17\.sky130_fd_sc_hd__dfxtp_1_0__CLK
*366 ANTENNA_mem_left_track_17\.sky130_fd_sc_hd__dfxtp_1_1__CLK
*367 ANTENNA_mem_left_track_19\.sky130_fd_sc_hd__dfxtp_1_0__CLK
*368 ANTENNA_mem_left_track_19\.sky130_fd_sc_hd__dfxtp_1_1__CLK
*369 ANTENNA_mem_left_track_21\.sky130_fd_sc_hd__dfxtp_1_0__CLK
*370 ANTENNA_mem_left_track_21\.sky130_fd_sc_hd__dfxtp_1_1__CLK
*371 ANTENNA_mem_left_track_23\.sky130_fd_sc_hd__dfxtp_1_0__CLK
*372 ANTENNA_mem_left_track_23\.sky130_fd_sc_hd__dfxtp_1_1__CLK
*373 ANTENNA_mem_left_track_25\.sky130_fd_sc_hd__dfxtp_1_0__CLK
*374 ANTENNA_mem_left_track_25\.sky130_fd_sc_hd__dfxtp_1_1__CLK
*375 ANTENNA_mem_left_track_25\.sky130_fd_sc_hd__dfxtp_1_1__D
*376 ANTENNA_mem_left_track_27\.sky130_fd_sc_hd__dfxtp_1_0__CLK
*377 ANTENNA_mem_left_track_27\.sky130_fd_sc_hd__dfxtp_1_0__D
*378 ANTENNA_mem_left_track_27\.sky130_fd_sc_hd__dfxtp_1_1__CLK
*379 ANTENNA_mem_left_track_29\.sky130_fd_sc_hd__dfxtp_1_0__CLK
*380 ANTENNA_mem_left_track_29\.sky130_fd_sc_hd__dfxtp_1_1__CLK
*381 ANTENNA_mem_left_track_3\.sky130_fd_sc_hd__dfxtp_1_0__CLK
*382 ANTENNA_mem_left_track_3\.sky130_fd_sc_hd__dfxtp_1_0__D
*383 ANTENNA_mem_left_track_3\.sky130_fd_sc_hd__dfxtp_1_1__CLK
*384 ANTENNA_mem_left_track_3\.sky130_fd_sc_hd__dfxtp_1_2__CLK
*385 ANTENNA_mem_left_track_31\.sky130_fd_sc_hd__dfxtp_1_0__CLK
*386 ANTENNA_mem_left_track_31\.sky130_fd_sc_hd__dfxtp_1_0__D
*387 ANTENNA_mem_left_track_31\.sky130_fd_sc_hd__dfxtp_1_1__CLK
*388 ANTENNA_mem_left_track_31\.sky130_fd_sc_hd__dfxtp_1_1__D
*389 ANTENNA_mem_left_track_33\.sky130_fd_sc_hd__dfxtp_1_0__CLK
*390 ANTENNA_mem_left_track_33\.sky130_fd_sc_hd__dfxtp_1_0__D
*391 ANTENNA_mem_left_track_33\.sky130_fd_sc_hd__dfxtp_1_1__CLK
*392 ANTENNA_mem_left_track_33\.sky130_fd_sc_hd__dfxtp_1_1__D
*393 ANTENNA_mem_left_track_35\.sky130_fd_sc_hd__dfxtp_1_0__CLK
*394 ANTENNA_mem_left_track_35\.sky130_fd_sc_hd__dfxtp_1_0__D
*395 ANTENNA_mem_left_track_35\.sky130_fd_sc_hd__dfxtp_1_1__CLK
*396 ANTENNA_mem_left_track_35\.sky130_fd_sc_hd__dfxtp_1_1__D
*397 ANTENNA_mem_left_track_37\.sky130_fd_sc_hd__dfxtp_1_0__CLK
*398 ANTENNA_mem_left_track_37\.sky130_fd_sc_hd__dfxtp_1_0__D
*399 ANTENNA_mem_left_track_37\.sky130_fd_sc_hd__dfxtp_1_1__CLK
*400 ANTENNA_mem_left_track_37\.sky130_fd_sc_hd__dfxtp_1_1__D
*401 ANTENNA_mem_left_track_39\.sky130_fd_sc_hd__dfxtp_1_0__CLK
*402 ANTENNA_mem_left_track_39\.sky130_fd_sc_hd__dfxtp_1_0__D
*403 ANTENNA_mem_left_track_39\.sky130_fd_sc_hd__dfxtp_1_1__CLK
*404 ANTENNA_mem_left_track_39\.sky130_fd_sc_hd__dfxtp_1_1__D
*405 ANTENNA_mem_left_track_5\.sky130_fd_sc_hd__dfxtp_1_0__CLK
*406 ANTENNA_mem_left_track_5\.sky130_fd_sc_hd__dfxtp_1_1__CLK
*407 ANTENNA_mem_left_track_5\.sky130_fd_sc_hd__dfxtp_1_1__D
*408 ANTENNA_mem_left_track_5\.sky130_fd_sc_hd__dfxtp_1_2__CLK
*409 ANTENNA_mem_left_track_5\.sky130_fd_sc_hd__dfxtp_1_2__D
*410 ANTENNA_mem_left_track_7\.sky130_fd_sc_hd__dfxtp_1_0__CLK
*411 ANTENNA_mem_left_track_7\.sky130_fd_sc_hd__dfxtp_1_0__D
*412 ANTENNA_mem_left_track_7\.sky130_fd_sc_hd__dfxtp_1_1__CLK
*413 ANTENNA_mem_left_track_7\.sky130_fd_sc_hd__dfxtp_1_2__CLK
*414 ANTENNA_mem_left_track_7\.sky130_fd_sc_hd__dfxtp_1_2__D
*415 ANTENNA_mem_left_track_9\.sky130_fd_sc_hd__dfxtp_1_0__CLK
*416 ANTENNA_mem_left_track_9\.sky130_fd_sc_hd__dfxtp_1_0__D
*417 ANTENNA_mem_left_track_9\.sky130_fd_sc_hd__dfxtp_1_1__CLK
*418 ANTENNA_mem_top_track_0\.sky130_fd_sc_hd__dfxtp_1_0__CLK
*419 ANTENNA_mem_top_track_0\.sky130_fd_sc_hd__dfxtp_1_0__D
*420 ANTENNA_mem_top_track_0\.sky130_fd_sc_hd__dfxtp_1_1__CLK
*421 ANTENNA_mem_top_track_0\.sky130_fd_sc_hd__dfxtp_1_2__CLK
*422 ANTENNA_mem_top_track_10\.sky130_fd_sc_hd__dfxtp_1_0__CLK
*423 ANTENNA_mem_top_track_10\.sky130_fd_sc_hd__dfxtp_1_1__CLK
*424 ANTENNA_mem_top_track_10\.sky130_fd_sc_hd__dfxtp_1_1__D
*425 ANTENNA_mem_top_track_12\.sky130_fd_sc_hd__dfxtp_1_0__CLK
*426 ANTENNA_mem_top_track_12\.sky130_fd_sc_hd__dfxtp_1_1__CLK
*427 ANTENNA_mem_top_track_14\.sky130_fd_sc_hd__dfxtp_1_0__CLK
*428 ANTENNA_mem_top_track_14\.sky130_fd_sc_hd__dfxtp_1_1__CLK
*429 ANTENNA_mem_top_track_14\.sky130_fd_sc_hd__dfxtp_1_1__D
*430 ANTENNA_mem_top_track_16\.sky130_fd_sc_hd__dfxtp_1_0__CLK
*431 ANTENNA_mem_top_track_16\.sky130_fd_sc_hd__dfxtp_1_1__CLK
*432 ANTENNA_mem_top_track_18\.sky130_fd_sc_hd__dfxtp_1_0__CLK
*433 ANTENNA_mem_top_track_18\.sky130_fd_sc_hd__dfxtp_1_1__CLK
*434 ANTENNA_mem_top_track_2\.sky130_fd_sc_hd__dfxtp_1_0__CLK
*435 ANTENNA_mem_top_track_2\.sky130_fd_sc_hd__dfxtp_1_1__CLK
*436 ANTENNA_mem_top_track_2\.sky130_fd_sc_hd__dfxtp_1_1__D
*437 ANTENNA_mem_top_track_2\.sky130_fd_sc_hd__dfxtp_1_2__CLK
*438 ANTENNA_mem_top_track_2\.sky130_fd_sc_hd__dfxtp_1_2__D
*439 ANTENNA_mem_top_track_20\.sky130_fd_sc_hd__dfxtp_1_0__CLK
*440 ANTENNA_mem_top_track_20\.sky130_fd_sc_hd__dfxtp_1_1__CLK
*441 ANTENNA_mem_top_track_22\.sky130_fd_sc_hd__dfxtp_1_0__CLK
*442 ANTENNA_mem_top_track_22\.sky130_fd_sc_hd__dfxtp_1_1__CLK
*443 ANTENNA_mem_top_track_24\.sky130_fd_sc_hd__dfxtp_1_0__CLK
*444 ANTENNA_mem_top_track_24\.sky130_fd_sc_hd__dfxtp_1_1__CLK
*445 ANTENNA_mem_top_track_26\.sky130_fd_sc_hd__dfxtp_1_0__CLK
*446 ANTENNA_mem_top_track_26\.sky130_fd_sc_hd__dfxtp_1_1__CLK
*447 ANTENNA_mem_top_track_4\.sky130_fd_sc_hd__dfxtp_1_0__CLK
*448 ANTENNA_mem_top_track_4\.sky130_fd_sc_hd__dfxtp_1_1__CLK
*449 ANTENNA_mem_top_track_4\.sky130_fd_sc_hd__dfxtp_1_1__D
*450 ANTENNA_mem_top_track_4\.sky130_fd_sc_hd__dfxtp_1_2__CLK
*451 ANTENNA_mem_top_track_4\.sky130_fd_sc_hd__dfxtp_1_2__D
*452 ANTENNA_mem_top_track_6\.sky130_fd_sc_hd__dfxtp_1_0__CLK
*453 ANTENNA_mem_top_track_6\.sky130_fd_sc_hd__dfxtp_1_0__D
*454 ANTENNA_mem_top_track_6\.sky130_fd_sc_hd__dfxtp_1_1__CLK
*455 ANTENNA_mem_top_track_6\.sky130_fd_sc_hd__dfxtp_1_1__D
*456 ANTENNA_mem_top_track_6\.sky130_fd_sc_hd__dfxtp_1_2__CLK
*457 ANTENNA_mem_top_track_6\.sky130_fd_sc_hd__dfxtp_1_2__D
*458 ANTENNA_mem_top_track_8\.sky130_fd_sc_hd__dfxtp_1_0__CLK
*459 ANTENNA_mem_top_track_8\.sky130_fd_sc_hd__dfxtp_1_1__CLK
*460 ANTENNA_mux_left_track_1\.mux_l1_in_0__A0
*461 ANTENNA_mux_left_track_1\.mux_l1_in_0__A1
*462 ANTENNA_mux_left_track_1\.mux_l1_in_0__S
*463 ANTENNA_mux_left_track_1\.mux_l1_in_1__A0
*464 ANTENNA_mux_left_track_1\.mux_l1_in_1__A1
*465 ANTENNA_mux_left_track_1\.mux_l1_in_1__S
*466 ANTENNA_mux_left_track_1\.mux_l1_in_2__A0
*467 ANTENNA_mux_left_track_1\.mux_l1_in_2__A1
*468 ANTENNA_mux_left_track_1\.mux_l1_in_2__S
*469 ANTENNA_mux_left_track_1\.mux_l2_in_0__S
*470 ANTENNA_mux_left_track_1\.mux_l2_in_1__S
*471 ANTENNA_mux_left_track_1\.mux_l3_in_0__S
*472 ANTENNA_mux_left_track_11\.mux_l1_in_0__A0
*473 ANTENNA_mux_left_track_11\.mux_l1_in_0__A1
*474 ANTENNA_mux_left_track_13\.mux_l1_in_0__A0
*475 ANTENNA_mux_left_track_13\.mux_l1_in_0__A1
*476 ANTENNA_mux_left_track_15\.mux_l1_in_0__A0
*477 ANTENNA_mux_left_track_15\.mux_l1_in_0__A1
*478 ANTENNA_mux_left_track_17\.mux_l1_in_0__A0
*479 ANTENNA_mux_left_track_17\.mux_l1_in_0__A1
*480 ANTENNA_mux_left_track_19\.mux_l1_in_0__A0
*481 ANTENNA_mux_left_track_19\.mux_l1_in_0__A1
*482 ANTENNA_mux_left_track_21\.mux_l1_in_0__A0
*483 ANTENNA_mux_left_track_21\.mux_l1_in_0__A1
*484 ANTENNA_mux_left_track_23\.mux_l1_in_0__A0
*485 ANTENNA_mux_left_track_23\.mux_l1_in_0__A1
*486 ANTENNA_mux_left_track_25\.mux_l1_in_0__A0
*487 ANTENNA_mux_left_track_25\.mux_l1_in_0__A1
*488 ANTENNA_mux_left_track_25\.mux_l1_in_0__S
*489 ANTENNA_mux_left_track_25\.mux_l1_in_1__A1
*490 ANTENNA_mux_left_track_25\.mux_l1_in_1__S
*491 ANTENNA_mux_left_track_25\.mux_l2_in_0__S
*492 ANTENNA_mux_left_track_27\.mux_l1_in_0__A0
*493 ANTENNA_mux_left_track_27\.mux_l1_in_0__A1
*494 ANTENNA_mux_left_track_29\.mux_l1_in_0__A0
*495 ANTENNA_mux_left_track_29\.mux_l1_in_0__A1
*496 ANTENNA_mux_left_track_29\.mux_l2_in_0__S
*497 ANTENNA_mux_left_track_3\.mux_l1_in_0__A0
*498 ANTENNA_mux_left_track_3\.mux_l1_in_0__A1
*499 ANTENNA_mux_left_track_3\.mux_l1_in_1__A0
*500 ANTENNA_mux_left_track_3\.mux_l1_in_1__A1
*501 ANTENNA_mux_left_track_3\.mux_l2_in_1__A1
*502 ANTENNA_mux_left_track_31\.mux_l1_in_0__A0
*503 ANTENNA_mux_left_track_31\.mux_l1_in_0__A1
*504 ANTENNA_mux_left_track_31\.mux_l1_in_0__S
*505 ANTENNA_mux_left_track_31\.mux_l2_in_0__S
*506 ANTENNA_mux_left_track_33\.mux_l1_in_0__A0
*507 ANTENNA_mux_left_track_33\.mux_l1_in_0__A1
*508 ANTENNA_mux_left_track_33\.mux_l1_in_0__S
*509 ANTENNA_mux_left_track_33\.mux_l2_in_0__S
*510 ANTENNA_mux_left_track_35\.mux_l1_in_0__A0
*511 ANTENNA_mux_left_track_35\.mux_l1_in_0__A1
*512 ANTENNA_mux_left_track_35\.mux_l1_in_0__S
*513 ANTENNA_mux_left_track_35\.mux_l2_in_0__S
*514 ANTENNA_mux_left_track_37\.mux_l1_in_0__A0
*515 ANTENNA_mux_left_track_37\.mux_l1_in_0__A1
*516 ANTENNA_mux_left_track_37\.mux_l1_in_0__S
*517 ANTENNA_mux_left_track_37\.mux_l2_in_0__S
*518 ANTENNA_mux_left_track_39\.mux_l1_in_0__A0
*519 ANTENNA_mux_left_track_39\.mux_l1_in_0__A1
*520 ANTENNA_mux_left_track_39\.mux_l1_in_0__S
*521 ANTENNA_mux_left_track_39\.mux_l2_in_0__S
*522 ANTENNA_mux_left_track_5\.mux_l1_in_0__A0
*523 ANTENNA_mux_left_track_5\.mux_l1_in_0__A1
*524 ANTENNA_mux_left_track_5\.mux_l1_in_0__S
*525 ANTENNA_mux_left_track_5\.mux_l1_in_1__A0
*526 ANTENNA_mux_left_track_5\.mux_l1_in_1__A1
*527 ANTENNA_mux_left_track_5\.mux_l1_in_1__S
*528 ANTENNA_mux_left_track_5\.mux_l1_in_2__A0
*529 ANTENNA_mux_left_track_5\.mux_l1_in_2__A1
*530 ANTENNA_mux_left_track_5\.mux_l1_in_2__S
*531 ANTENNA_mux_left_track_5\.mux_l2_in_0__S
*532 ANTENNA_mux_left_track_5\.mux_l2_in_1__S
*533 ANTENNA_mux_left_track_5\.mux_l3_in_0__S
*534 ANTENNA_mux_left_track_7\.mux_l1_in_0__A0
*535 ANTENNA_mux_left_track_7\.mux_l1_in_0__A1
*536 ANTENNA_mux_left_track_7\.mux_l1_in_1__A0
*537 ANTENNA_mux_left_track_7\.mux_l1_in_1__A1
*538 ANTENNA_mux_left_track_7\.mux_l2_in_0__S
*539 ANTENNA_mux_left_track_7\.mux_l2_in_1__A1
*540 ANTENNA_mux_left_track_7\.mux_l2_in_1__S
*541 ANTENNA_mux_left_track_7\.mux_l3_in_0__S
*542 ANTENNA_mux_left_track_9\.mux_l1_in_0__A0
*543 ANTENNA_mux_left_track_9\.mux_l1_in_0__A1
*544 ANTENNA_mux_left_track_9\.mux_l1_in_1__A1
*545 ANTENNA_mux_top_track_0\.mux_l1_in_0__A0
*546 ANTENNA_mux_top_track_0\.mux_l1_in_0__A1
*547 ANTENNA_mux_top_track_0\.mux_l1_in_1__A0
*548 ANTENNA_mux_top_track_0\.mux_l1_in_1__A1
*549 ANTENNA_mux_top_track_0\.mux_l1_in_2__A0
*550 ANTENNA_mux_top_track_0\.mux_l1_in_2__A1
*551 ANTENNA_mux_top_track_10\.mux_l1_in_0__A0
*552 ANTENNA_mux_top_track_10\.mux_l1_in_0__A1
*553 ANTENNA_mux_top_track_10\.mux_l1_in_0__S
*554 ANTENNA_mux_top_track_12\.mux_l1_in_0__A0
*555 ANTENNA_mux_top_track_12\.mux_l1_in_0__A1
*556 ANTENNA_mux_top_track_14\.mux_l1_in_0__A0
*557 ANTENNA_mux_top_track_14\.mux_l1_in_0__A1
*558 ANTENNA_mux_top_track_14\.mux_l1_in_0__S
*559 ANTENNA_mux_top_track_16\.mux_l1_in_0__A0
*560 ANTENNA_mux_top_track_16\.mux_l1_in_0__A1
*561 ANTENNA_mux_top_track_18\.mux_l1_in_0__A0
*562 ANTENNA_mux_top_track_18\.mux_l1_in_0__A1
*563 ANTENNA_mux_top_track_2\.mux_l1_in_0__A0
*564 ANTENNA_mux_top_track_2\.mux_l1_in_0__A1
*565 ANTENNA_mux_top_track_2\.mux_l1_in_0__S
*566 ANTENNA_mux_top_track_2\.mux_l1_in_1__A0
*567 ANTENNA_mux_top_track_2\.mux_l1_in_1__A1
*568 ANTENNA_mux_top_track_2\.mux_l1_in_1__S
*569 ANTENNA_mux_top_track_2\.mux_l2_in_0__S
*570 ANTENNA_mux_top_track_2\.mux_l2_in_1__A1
*571 ANTENNA_mux_top_track_2\.mux_l2_in_1__S
*572 ANTENNA_mux_top_track_20\.mux_l1_in_0__A0
*573 ANTENNA_mux_top_track_20\.mux_l1_in_0__A1
*574 ANTENNA_mux_top_track_22\.mux_l1_in_0__A0
*575 ANTENNA_mux_top_track_22\.mux_l1_in_0__A1
*576 ANTENNA_mux_top_track_24\.mux_l1_in_0__A0
*577 ANTENNA_mux_top_track_24\.mux_l1_in_0__A1
*578 ANTENNA_mux_top_track_24\.mux_l1_in_1__A1
*579 ANTENNA_mux_top_track_26\.mux_l1_in_0__A0
*580 ANTENNA_mux_top_track_26\.mux_l1_in_0__A1
*581 ANTENNA_mux_top_track_4\.mux_l1_in_0__A0
*582 ANTENNA_mux_top_track_4\.mux_l1_in_0__A1
*583 ANTENNA_mux_top_track_4\.mux_l1_in_0__S
*584 ANTENNA_mux_top_track_4\.mux_l1_in_1__A0
*585 ANTENNA_mux_top_track_4\.mux_l1_in_1__A1
*586 ANTENNA_mux_top_track_4\.mux_l1_in_1__S
*587 ANTENNA_mux_top_track_4\.mux_l1_in_2__A0
*588 ANTENNA_mux_top_track_4\.mux_l1_in_2__A1
*589 ANTENNA_mux_top_track_4\.mux_l1_in_2__S
*590 ANTENNA_mux_top_track_4\.mux_l2_in_0__S
*591 ANTENNA_mux_top_track_4\.mux_l2_in_1__S
*592 ANTENNA_mux_top_track_4\.mux_l3_in_0__S
*593 ANTENNA_mux_top_track_6\.mux_l1_in_0__A0
*594 ANTENNA_mux_top_track_6\.mux_l1_in_0__A1
*595 ANTENNA_mux_top_track_6\.mux_l1_in_0__S
*596 ANTENNA_mux_top_track_6\.mux_l1_in_1__A0
*597 ANTENNA_mux_top_track_6\.mux_l1_in_1__A1
*598 ANTENNA_mux_top_track_6\.mux_l1_in_1__S
*599 ANTENNA_mux_top_track_6\.mux_l2_in_0__S
*600 ANTENNA_mux_top_track_6\.mux_l2_in_1__A1
*601 ANTENNA_mux_top_track_6\.mux_l2_in_1__S
*602 ANTENNA_mux_top_track_8\.mux_l1_in_0__A0
*603 ANTENNA_mux_top_track_8\.mux_l1_in_0__A1
*604 ANTENNA_mux_top_track_8\.mux_l1_in_1__A1
*605 ANTENNA_prog_clk_0_FTB00_A
*606 FILLER_0_109
*607 FILLER_0_113
*608 FILLER_0_125
*609 FILLER_0_137
*610 FILLER_0_141
*611 FILLER_0_15
*612 FILLER_0_153
*613 FILLER_0_165
*614 FILLER_0_169
*615 FILLER_0_181
*616 FILLER_0_193
*617 FILLER_0_197
*618 FILLER_0_209
*619 FILLER_0_221
*620 FILLER_0_27
*621 FILLER_0_29
*622 FILLER_0_3
*623 FILLER_0_41
*624 FILLER_0_53
*625 FILLER_0_57
*626 FILLER_0_69
*627 FILLER_0_81
*628 FILLER_0_85
*629 FILLER_0_97
*630 FILLER_10_101
*631 FILLER_10_105
*632 FILLER_10_109
*633 FILLER_10_112
*634 FILLER_10_116
*635 FILLER_10_119
*636 FILLER_10_130
*637 FILLER_10_134
*638 FILLER_10_141
*639 FILLER_10_15
*640 FILLER_10_153
*641 FILLER_10_165
*642 FILLER_10_177
*643 FILLER_10_189
*644 FILLER_10_195
*645 FILLER_10_197
*646 FILLER_10_209
*647 FILLER_10_221
*648 FILLER_10_27
*649 FILLER_10_29
*650 FILLER_10_3
*651 FILLER_10_41
*652 FILLER_10_51
*653 FILLER_10_62
*654 FILLER_10_66
*655 FILLER_10_76
*656 FILLER_10_82
*657 FILLER_10_94
*658 FILLER_10_98
*659 FILLER_11_110
*660 FILLER_11_113
*661 FILLER_11_117
*662 FILLER_11_121
*663 FILLER_11_132
*664 FILLER_11_144
*665 FILLER_11_15
*666 FILLER_11_156
*667 FILLER_11_169
*668 FILLER_11_181
*669 FILLER_11_193
*670 FILLER_11_205
*671 FILLER_11_213
*672 FILLER_11_217
*673 FILLER_11_221
*674 FILLER_11_27
*675 FILLER_11_3
*676 FILLER_11_39
*677 FILLER_11_42
*678 FILLER_11_46
*679 FILLER_11_50
*680 FILLER_11_54
*681 FILLER_11_66
*682 FILLER_11_77
*683 FILLER_11_81
*684 FILLER_11_84
*685 FILLER_11_95
*686 FILLER_11_99
*687 FILLER_12_101
*688 FILLER_12_112
*689 FILLER_12_123
*690 FILLER_12_127
*691 FILLER_12_135
*692 FILLER_12_138
*693 FILLER_12_14
*694 FILLER_12_141
*695 FILLER_12_153
*696 FILLER_12_163
*697 FILLER_12_175
*698 FILLER_12_187
*699 FILLER_12_195
*700 FILLER_12_199
*701 FILLER_12_205
*702 FILLER_12_211
*703 FILLER_12_215
*704 FILLER_12_219
*705 FILLER_12_26
*706 FILLER_12_29
*707 FILLER_12_3
*708 FILLER_12_35
*709 FILLER_12_46
*710 FILLER_12_57
*711 FILLER_12_62
*712 FILLER_12_66
*713 FILLER_12_72
*714 FILLER_12_77
*715 FILLER_12_82
*716 FILLER_12_85
*717 FILLER_12_9
*718 FILLER_12_90
*719 FILLER_13_110
*720 FILLER_13_115
*721 FILLER_13_119
*722 FILLER_13_13
*723 FILLER_13_136
*724 FILLER_13_140
*725 FILLER_13_144
*726 FILLER_13_161
*727 FILLER_13_165
*728 FILLER_13_171
*729 FILLER_13_175
*730 FILLER_13_179
*731 FILLER_13_187
*732 FILLER_13_19
*733 FILLER_13_191
*734 FILLER_13_195
*735 FILLER_13_201
*736 FILLER_13_205
*737 FILLER_13_209
*738 FILLER_13_213
*739 FILLER_13_217
*740 FILLER_13_221
*741 FILLER_13_23
*742 FILLER_13_3
*743 FILLER_13_35
*744 FILLER_13_43
*745 FILLER_13_47
*746 FILLER_13_54
*747 FILLER_13_59
*748 FILLER_13_70
*749 FILLER_13_74
*750 FILLER_13_78
*751 FILLER_13_88
*752 FILLER_13_99
*753 FILLER_14_101
*754 FILLER_14_105
*755 FILLER_14_117
*756 FILLER_14_121
*757 FILLER_14_13
*758 FILLER_14_138
*759 FILLER_14_157
*760 FILLER_14_175
*761 FILLER_14_193
*762 FILLER_14_197
*763 FILLER_14_200
*764 FILLER_14_204
*765 FILLER_14_221
*766 FILLER_14_25
*767 FILLER_14_3
*768 FILLER_14_31
*769 FILLER_14_42
*770 FILLER_14_46
*771 FILLER_14_49
*772 FILLER_14_53
*773 FILLER_14_60
*774 FILLER_14_71
*775 FILLER_14_82
*776 FILLER_14_94
*777 FILLER_14_98
*778 FILLER_15_104
*779 FILLER_15_109
*780 FILLER_15_113
*781 FILLER_15_12
*782 FILLER_15_127
*783 FILLER_15_145
*784 FILLER_15_163
*785 FILLER_15_167
*786 FILLER_15_185
*787 FILLER_15_20
*788 FILLER_15_203
*789 FILLER_15_221
*790 FILLER_15_28
*791 FILLER_15_3
*792 FILLER_15_32
*793 FILLER_15_36
*794 FILLER_15_40
*795 FILLER_15_46
*796 FILLER_15_54
*797 FILLER_15_6
*798 FILLER_15_66
*799 FILLER_15_77
*800 FILLER_15_83
*801 FILLER_15_88
*802 FILLER_15_92
*803 FILLER_16_108
*804 FILLER_16_112
*805 FILLER_16_120
*806 FILLER_16_13
*807 FILLER_16_138
*808 FILLER_16_157
*809 FILLER_16_175
*810 FILLER_16_19
*811 FILLER_16_193
*812 FILLER_16_199
*813 FILLER_16_217
*814 FILLER_16_22
*815 FILLER_16_221
*816 FILLER_16_26
*817 FILLER_16_3
*818 FILLER_16_35
*819 FILLER_16_39
*820 FILLER_16_49
*821 FILLER_16_62
*822 FILLER_16_70
*823 FILLER_16_75
*824 FILLER_16_82
*825 FILLER_16_94
*826 FILLER_16_98
*827 FILLER_17_110
*828 FILLER_17_116
*829 FILLER_17_13
*830 FILLER_17_135
*831 FILLER_17_139
*832 FILLER_17_143
*833 FILLER_17_162
*834 FILLER_17_166
*835 FILLER_17_17
*836 FILLER_17_171
*837 FILLER_17_177
*838 FILLER_17_196
*839 FILLER_17_200
*840 FILLER_17_21
*841 FILLER_17_217
*842 FILLER_17_221
*843 FILLER_17_24
*844 FILLER_17_28
*845 FILLER_17_3
*846 FILLER_17_32
*847 FILLER_17_40
*848 FILLER_17_51
*849 FILLER_17_55
*850 FILLER_17_60
*851 FILLER_17_64
*852 FILLER_17_68
*853 FILLER_17_72
*854 FILLER_17_84
*855 FILLER_17_89
*856 FILLER_17_99
*857 FILLER_18_102
*858 FILLER_18_105
*859 FILLER_18_109
*860 FILLER_18_120
*861 FILLER_18_138
*862 FILLER_18_143
*863 FILLER_18_147
*864 FILLER_18_15
*865 FILLER_18_167
*866 FILLER_18_171
*867 FILLER_18_190