*SPEF "ieee 1481-1999"
*DESIGN "sb_2__2_"
*DATE "11:11:11 Fri 11 11, 1111"
*VENDOR "OpenRCX"
*PROGRAM "Parallel Extraction"
*VERSION "1.0"
*DESIGN_FLOW "NAME_SCOPE LOCAL" "PIN_CAP NONE"
*DIVIDER /
*DELIMITER :
*BUS_DELIMITER []
*T_UNIT 1 NS
*C_UNIT 1 PF
*R_UNIT 1 OHM
*L_UNIT 1 HENRY

*NAME_MAP
*1 SC_IN_BOT
*2 SC_OUT_BOT
*5 bottom_left_grid_pin_42_
*6 bottom_left_grid_pin_43_
*7 bottom_left_grid_pin_44_
*8 bottom_left_grid_pin_45_
*9 bottom_left_grid_pin_46_
*10 bottom_left_grid_pin_47_
*11 bottom_left_grid_pin_48_
*12 bottom_left_grid_pin_49_
*13 bottom_right_grid_pin_1_
*14 ccff_head
*15 ccff_tail
*16 chanx_left_in[0]
*17 chanx_left_in[10]
*18 chanx_left_in[11]
*19 chanx_left_in[12]
*20 chanx_left_in[13]
*21 chanx_left_in[14]
*22 chanx_left_in[15]
*23 chanx_left_in[16]
*24 chanx_left_in[17]
*25 chanx_left_in[18]
*26 chanx_left_in[19]
*27 chanx_left_in[1]
*28 chanx_left_in[2]
*29 chanx_left_in[3]
*30 chanx_left_in[4]
*31 chanx_left_in[5]
*32 chanx_left_in[6]
*33 chanx_left_in[7]
*34 chanx_left_in[8]
*35 chanx_left_in[9]
*36 chanx_left_out[0]
*37 chanx_left_out[10]
*38 chanx_left_out[11]
*39 chanx_left_out[12]
*40 chanx_left_out[13]
*41 chanx_left_out[14]
*42 chanx_left_out[15]
*43 chanx_left_out[16]
*44 chanx_left_out[17]
*45 chanx_left_out[18]
*46 chanx_left_out[19]
*47 chanx_left_out[1]
*48 chanx_left_out[2]
*49 chanx_left_out[3]
*50 chanx_left_out[4]
*51 chanx_left_out[5]
*52 chanx_left_out[6]
*53 chanx_left_out[7]
*54 chanx_left_out[8]
*55 chanx_left_out[9]
*56 chany_bottom_in[0]
*57 chany_bottom_in[10]
*58 chany_bottom_in[11]
*59 chany_bottom_in[12]
*60 chany_bottom_in[13]
*61 chany_bottom_in[14]
*62 chany_bottom_in[15]
*63 chany_bottom_in[16]
*64 chany_bottom_in[17]
*65 chany_bottom_in[18]
*66 chany_bottom_in[19]
*67 chany_bottom_in[1]
*68 chany_bottom_in[2]
*69 chany_bottom_in[3]
*70 chany_bottom_in[4]
*71 chany_bottom_in[5]
*72 chany_bottom_in[6]
*73 chany_bottom_in[7]
*74 chany_bottom_in[8]
*75 chany_bottom_in[9]
*76 chany_bottom_out[0]
*77 chany_bottom_out[10]
*78 chany_bottom_out[11]
*79 chany_bottom_out[12]
*80 chany_bottom_out[13]
*81 chany_bottom_out[14]
*82 chany_bottom_out[15]
*83 chany_bottom_out[16]
*84 chany_bottom_out[17]
*85 chany_bottom_out[18]
*86 chany_bottom_out[19]
*87 chany_bottom_out[1]
*88 chany_bottom_out[2]
*89 chany_bottom_out[3]
*90 chany_bottom_out[4]
*91 chany_bottom_out[5]
*92 chany_bottom_out[6]
*93 chany_bottom_out[7]
*94 chany_bottom_out[8]
*95 chany_bottom_out[9]
*96 left_bottom_grid_pin_34_
*97 left_bottom_grid_pin_35_
*98 left_bottom_grid_pin_36_
*99 left_bottom_grid_pin_37_
*100 left_bottom_grid_pin_38_
*101 left_bottom_grid_pin_39_
*102 left_bottom_grid_pin_40_
*103 left_bottom_grid_pin_41_
*104 left_top_grid_pin_1_
*105 prog_clk_0_S_in
*106 _000_
*107 _001_
*108 _002_
*109 _003_
*110 _004_
*111 _005_
*112 _006_
*113 _007_
*114 _008_
*115 _009_
*116 _010_
*117 _011_
*118 _012_
*119 _013_
*120 _014_
*121 _015_
*122 _016_
*123 _017_
*124 _018_
*125 _019_
*126 _020_
*127 _021_
*128 _022_
*129 _023_
*130 _024_
*131 _025_
*132 _026_
*133 _027_
*134 _028_
*135 _029_
*136 _030_
*137 _031_
*138 _032_
*139 _033_
*140 _034_
*141 mem_bottom_track_1\.ccff_tail
*142 mem_bottom_track_1\.mem_out\[0\]
*143 mem_bottom_track_1\.mem_out\[1\]
*144 mem_bottom_track_1\.prog_clk
*145 mem_bottom_track_11\.ccff_head
*146 mem_bottom_track_11\.ccff_tail
*147 mem_bottom_track_11\.mem_out\[0\]
*148 mem_bottom_track_13\.ccff_tail
*149 mem_bottom_track_13\.mem_out\[0\]
*150 mem_bottom_track_15\.ccff_tail
*151 mem_bottom_track_15\.mem_out\[0\]
*152 mem_bottom_track_17\.ccff_tail
*153 mem_bottom_track_17\.mem_out\[0\]
*154 mem_bottom_track_19\.ccff_tail
*155 mem_bottom_track_19\.mem_out\[0\]
*156 mem_bottom_track_21\.ccff_tail
*157 mem_bottom_track_21\.mem_out\[0\]
*158 mem_bottom_track_23\.ccff_tail
*159 mem_bottom_track_23\.mem_out\[0\]
*160 mem_bottom_track_25\.ccff_tail
*161 mem_bottom_track_25\.mem_out\[0\]
*162 mem_bottom_track_27\.ccff_tail
*163 mem_bottom_track_27\.mem_out\[0\]
*164 mem_bottom_track_29\.ccff_tail
*165 mem_bottom_track_29\.mem_out\[0\]
*166 mem_bottom_track_3\.ccff_tail
*167 mem_bottom_track_3\.mem_out\[0\]
*168 mem_bottom_track_3\.mem_out\[1\]
*169 mem_bottom_track_5\.ccff_tail
*170 mem_bottom_track_5\.mem_out\[0\]
*171 mem_bottom_track_5\.mem_out\[1\]
*172 mem_bottom_track_7\.ccff_tail
*173 mem_bottom_track_7\.mem_out\[0\]
*174 mem_bottom_track_7\.mem_out\[1\]
*175 mem_bottom_track_9\.mem_out\[0\]
*176 mem_left_track_1\.ccff_tail
*177 mem_left_track_1\.mem_out\[0\]
*178 mem_left_track_1\.mem_out\[1\]
*179 mem_left_track_11\.ccff_head
*180 mem_left_track_11\.ccff_tail
*181 mem_left_track_11\.mem_out\[0\]
*182 mem_left_track_13\.ccff_tail
*183 mem_left_track_13\.mem_out\[0\]
*184 mem_left_track_15\.ccff_tail
*185 mem_left_track_15\.mem_out\[0\]
*186 mem_left_track_17\.ccff_tail
*187 mem_left_track_17\.mem_out\[0\]
*188 mem_left_track_19\.ccff_tail
*189 mem_left_track_19\.mem_out\[0\]
*190 mem_left_track_21\.ccff_tail
*191 mem_left_track_21\.mem_out\[0\]
*192 mem_left_track_23\.ccff_tail
*193 mem_left_track_23\.mem_out\[0\]
*194 mem_left_track_25\.ccff_tail
*195 mem_left_track_25\.mem_out\[0\]
*196 mem_left_track_27\.ccff_tail
*197 mem_left_track_27\.mem_out\[0\]
*198 mem_left_track_29\.ccff_tail
*199 mem_left_track_29\.mem_out\[0\]
*200 mem_left_track_3\.ccff_tail
*201 mem_left_track_3\.mem_out\[0\]
*202 mem_left_track_3\.mem_out\[1\]
*203 mem_left_track_31\.ccff_tail
*204 mem_left_track_31\.mem_out\[0\]
*205 mem_left_track_33\.ccff_tail
*206 mem_left_track_33\.mem_out\[0\]
*207 mem_left_track_35\.ccff_tail
*208 mem_left_track_35\.mem_out\[0\]
*209 mem_left_track_37\.ccff_tail
*210 mem_left_track_37\.mem_out\[0\]
*211 mem_left_track_39\.mem_out\[0\]
*212 mem_left_track_5\.ccff_tail
*213 mem_left_track_5\.mem_out\[0\]
*214 mem_left_track_5\.mem_out\[1\]
*215 mem_left_track_7\.ccff_tail
*216 mem_left_track_7\.mem_out\[0\]
*217 mem_left_track_7\.mem_out\[1\]
*218 mem_left_track_9\.mem_out\[0\]
*219 mux_bottom_track_1\.out
*220 mux_bottom_track_1\.sky130_fd_sc_hd__mux2_1_0_X
*221 mux_bottom_track_1\.sky130_fd_sc_hd__mux2_1_1_X
*222 mux_bottom_track_1\.sky130_fd_sc_hd__mux2_1_2_X
*223 mux_bottom_track_1\.sky130_fd_sc_hd__mux2_1_3_X
*224 mux_bottom_track_1\.sky130_fd_sc_hd__mux2_1_4_X
*225 mux_bottom_track_1\.sky130_fd_sc_hd__mux2_1_5_X
*226 mux_bottom_track_11\.out
*227 mux_bottom_track_11\.sky130_fd_sc_hd__mux2_1_0_X
*228 mux_bottom_track_11\.sky130_fd_sc_hd__mux2_1_1_X
*229 mux_bottom_track_13\.out
*230 mux_bottom_track_13\.sky130_fd_sc_hd__mux2_1_0_X
*231 mux_bottom_track_13\.sky130_fd_sc_hd__mux2_1_1_X
*232 mux_bottom_track_15\.out
*233 mux_bottom_track_15\.sky130_fd_sc_hd__mux2_1_0_X
*234 mux_bottom_track_15\.sky130_fd_sc_hd__mux2_1_1_X
*235 mux_bottom_track_17\.out
*236 mux_bottom_track_17\.sky130_fd_sc_hd__mux2_1_0_X
*237 mux_bottom_track_17\.sky130_fd_sc_hd__mux2_1_1_X
*238 mux_bottom_track_19\.out
*239 mux_bottom_track_19\.sky130_fd_sc_hd__mux2_1_0_X
*240 mux_bottom_track_19\.sky130_fd_sc_hd__mux2_1_1_X
*241 mux_bottom_track_21\.out
*242 mux_bottom_track_21\.sky130_fd_sc_hd__mux2_1_0_X
*243 mux_bottom_track_21\.sky130_fd_sc_hd__mux2_1_1_X
*244 mux_bottom_track_23\.out
*245 mux_bottom_track_23\.sky130_fd_sc_hd__mux2_1_0_X
*246 mux_bottom_track_23\.sky130_fd_sc_hd__mux2_1_1_X
*247 mux_bottom_track_25\.out
*248 mux_bottom_track_25\.sky130_fd_sc_hd__mux2_1_0_X
*249 mux_bottom_track_25\.sky130_fd_sc_hd__mux2_1_1_X
*250 mux_bottom_track_25\.sky130_fd_sc_hd__mux2_1_2_X
*251 mux_bottom_track_27\.out
*252 mux_bottom_track_27\.sky130_fd_sc_hd__mux2_1_0_X
*253 mux_bottom_track_27\.sky130_fd_sc_hd__mux2_1_1_X
*254 mux_bottom_track_29\.out
*255 mux_bottom_track_29\.sky130_fd_sc_hd__mux2_1_0_X
*256 mux_bottom_track_29\.sky130_fd_sc_hd__mux2_1_1_X
*257 mux_bottom_track_3\.out
*258 mux_bottom_track_3\.sky130_fd_sc_hd__mux2_1_0_X
*259 mux_bottom_track_3\.sky130_fd_sc_hd__mux2_1_1_X
*260 mux_bottom_track_3\.sky130_fd_sc_hd__mux2_1_2_X
*261 mux_bottom_track_3\.sky130_fd_sc_hd__mux2_1_3_X
*262 mux_bottom_track_3\.sky130_fd_sc_hd__mux2_1_4_X
*263 mux_bottom_track_5\.out
*264 mux_bottom_track_5\.sky130_fd_sc_hd__mux2_1_0_X
*265 mux_bottom_track_5\.sky130_fd_sc_hd__mux2_1_1_X
*266 mux_bottom_track_5\.sky130_fd_sc_hd__mux2_1_2_X
*267 mux_bottom_track_5\.sky130_fd_sc_hd__mux2_1_3_X
*268 mux_bottom_track_5\.sky130_fd_sc_hd__mux2_1_4_X
*269 mux_bottom_track_5\.sky130_fd_sc_hd__mux2_1_5_X
*270 mux_bottom_track_7\.out
*271 mux_bottom_track_7\.sky130_fd_sc_hd__mux2_1_0_X
*272 mux_bottom_track_7\.sky130_fd_sc_hd__mux2_1_1_X
*273 mux_bottom_track_7\.sky130_fd_sc_hd__mux2_1_2_X
*274 mux_bottom_track_7\.sky130_fd_sc_hd__mux2_1_3_X
*275 mux_bottom_track_7\.sky130_fd_sc_hd__mux2_1_4_X
*276 mux_bottom_track_9\.out
*277 mux_bottom_track_9\.sky130_fd_sc_hd__mux2_1_0_X
*278 mux_bottom_track_9\.sky130_fd_sc_hd__mux2_1_1_X
*279 mux_left_track_1\.out
*280 mux_left_track_1\.sky130_fd_sc_hd__mux2_1_0_X
*281 mux_left_track_1\.sky130_fd_sc_hd__mux2_1_1_X
*282 mux_left_track_1\.sky130_fd_sc_hd__mux2_1_2_X
*283 mux_left_track_1\.sky130_fd_sc_hd__mux2_1_3_X
*284 mux_left_track_1\.sky130_fd_sc_hd__mux2_1_4_X
*285 mux_left_track_1\.sky130_fd_sc_hd__mux2_1_5_X
*286 mux_left_track_11\.out
*287 mux_left_track_11\.sky130_fd_sc_hd__mux2_1_0_X
*288 mux_left_track_11\.sky130_fd_sc_hd__mux2_1_1_X
*289 mux_left_track_13\.out
*290 mux_left_track_13\.sky130_fd_sc_hd__mux2_1_0_X
*291 mux_left_track_13\.sky130_fd_sc_hd__mux2_1_1_X
*292 mux_left_track_15\.out
*293 mux_left_track_15\.sky130_fd_sc_hd__mux2_1_0_X
*294 mux_left_track_15\.sky130_fd_sc_hd__mux2_1_1_X
*295 mux_left_track_17\.out
*296 mux_left_track_17\.sky130_fd_sc_hd__mux2_1_0_X
*297 mux_left_track_17\.sky130_fd_sc_hd__mux2_1_1_X
*298 mux_left_track_19\.out
*299 mux_left_track_19\.sky130_fd_sc_hd__mux2_1_0_X
*300 mux_left_track_19\.sky130_fd_sc_hd__mux2_1_1_X
*301 mux_left_track_21\.out
*302 mux_left_track_21\.sky130_fd_sc_hd__mux2_1_0_X
*303 mux_left_track_21\.sky130_fd_sc_hd__mux2_1_1_X
*304 mux_left_track_23\.out
*305 mux_left_track_23\.sky130_fd_sc_hd__mux2_1_0_X
*306 mux_left_track_23\.sky130_fd_sc_hd__mux2_1_1_X
*307 mux_left_track_25\.out
*308 mux_left_track_25\.sky130_fd_sc_hd__mux2_1_0_X
*309 mux_left_track_25\.sky130_fd_sc_hd__mux2_1_1_X
*310 mux_left_track_25\.sky130_fd_sc_hd__mux2_1_2_X
*311 mux_left_track_27\.out
*312 mux_left_track_27\.sky130_fd_sc_hd__mux2_1_0_X
*313 mux_left_track_27\.sky130_fd_sc_hd__mux2_1_1_X
*314 mux_left_track_29\.out
*315 mux_left_track_29\.sky130_fd_sc_hd__mux2_1_0_X
*316 mux_left_track_29\.sky130_fd_sc_hd__mux2_1_1_X
*317 mux_left_track_3\.out
*318 mux_left_track_3\.sky130_fd_sc_hd__mux2_1_0_X
*319 mux_left_track_3\.sky130_fd_sc_hd__mux2_1_1_X
*320 mux_left_track_3\.sky130_fd_sc_hd__mux2_1_2_X
*321 mux_left_track_3\.sky130_fd_sc_hd__mux2_1_3_X
*322 mux_left_track_3\.sky130_fd_sc_hd__mux2_1_4_X
*323 mux_left_track_31\.out
*324 mux_left_track_31\.sky130_fd_sc_hd__mux2_1_0_X
*325 mux_left_track_31\.sky130_fd_sc_hd__mux2_1_1_X
*326 mux_left_track_33\.out
*327 mux_left_track_33\.sky130_fd_sc_hd__mux2_1_0_X
*328 mux_left_track_33\.sky130_fd_sc_hd__mux2_1_1_X
*329 mux_left_track_35\.out
*330 mux_left_track_35\.sky130_fd_sc_hd__mux2_1_0_X
*331 mux_left_track_35\.sky130_fd_sc_hd__mux2_1_1_X
*332 mux_left_track_37\.out
*333 mux_left_track_37\.sky130_fd_sc_hd__mux2_1_0_X
*334 mux_left_track_37\.sky130_fd_sc_hd__mux2_1_1_X
*335 mux_left_track_39\.out
*336 mux_left_track_39\.sky130_fd_sc_hd__mux2_1_0_X
*337 mux_left_track_39\.sky130_fd_sc_hd__mux2_1_1_X
*338 mux_left_track_5\.out
*339 mux_left_track_5\.sky130_fd_sc_hd__mux2_1_0_X
*340 mux_left_track_5\.sky130_fd_sc_hd__mux2_1_1_X
*341 mux_left_track_5\.sky130_fd_sc_hd__mux2_1_2_X
*342 mux_left_track_5\.sky130_fd_sc_hd__mux2_1_3_X
*343 mux_left_track_5\.sky130_fd_sc_hd__mux2_1_4_X
*344 mux_left_track_5\.sky130_fd_sc_hd__mux2_1_5_X
*345 mux_left_track_7\.out
*346 mux_left_track_7\.sky130_fd_sc_hd__mux2_1_0_X
*347 mux_left_track_7\.sky130_fd_sc_hd__mux2_1_1_X
*348 mux_left_track_7\.sky130_fd_sc_hd__mux2_1_2_X
*349 mux_left_track_7\.sky130_fd_sc_hd__mux2_1_3_X
*350 mux_left_track_7\.sky130_fd_sc_hd__mux2_1_4_X
*351 mux_left_track_9\.out
*352 mux_left_track_9\.sky130_fd_sc_hd__mux2_1_0_X
*353 mux_left_track_9\.sky130_fd_sc_hd__mux2_1_1_X
*354 mux_left_track_9\.sky130_fd_sc_hd__mux2_1_2_X
*355 ANTENNA__070__A
*356 ANTENNA__106__A
*357 ANTENNA__107__A
*358 ANTENNA__108__A
*359 ANTENNA__109__A
*360 ANTENNA__110__A
*361 ANTENNA_mem_bottom_track_1\.sky130_fd_sc_hd__dfxtp_1_0__CLK
*362 ANTENNA_mem_bottom_track_1\.sky130_fd_sc_hd__dfxtp_1_0__D
*363 ANTENNA_mem_bottom_track_1\.sky130_fd_sc_hd__dfxtp_1_1__CLK
*364 ANTENNA_mem_bottom_track_1\.sky130_fd_sc_hd__dfxtp_1_2__CLK
*365 ANTENNA_mem_bottom_track_11\.sky130_fd_sc_hd__dfxtp_1_0__CLK
*366 ANTENNA_mem_bottom_track_11\.sky130_fd_sc_hd__dfxtp_1_1__CLK
*367 ANTENNA_mem_bottom_track_13\.sky130_fd_sc_hd__dfxtp_1_0__CLK
*368 ANTENNA_mem_bottom_track_13\.sky130_fd_sc_hd__dfxtp_1_1__CLK
*369 ANTENNA_mem_bottom_track_15\.sky130_fd_sc_hd__dfxtp_1_0__CLK
*370 ANTENNA_mem_bottom_track_15\.sky130_fd_sc_hd__dfxtp_1_1__CLK
*371 ANTENNA_mem_bottom_track_17\.sky130_fd_sc_hd__dfxtp_1_0__CLK
*372 ANTENNA_mem_bottom_track_17\.sky130_fd_sc_hd__dfxtp_1_1__CLK
*373 ANTENNA_mem_bottom_track_19\.sky130_fd_sc_hd__dfxtp_1_0__CLK
*374 ANTENNA_mem_bottom_track_19\.sky130_fd_sc_hd__dfxtp_1_1__CLK
*375 ANTENNA_mem_bottom_track_21\.sky130_fd_sc_hd__dfxtp_1_0__CLK
*376 ANTENNA_mem_bottom_track_21\.sky130_fd_sc_hd__dfxtp_1_1__CLK
*377 ANTENNA_mem_bottom_track_23\.sky130_fd_sc_hd__dfxtp_1_0__CLK
*378 ANTENNA_mem_bottom_track_23\.sky130_fd_sc_hd__dfxtp_1_1__CLK
*379 ANTENNA_mem_bottom_track_25\.sky130_fd_sc_hd__dfxtp_1_0__CLK
*380 ANTENNA_mem_bottom_track_25\.sky130_fd_sc_hd__dfxtp_1_1__CLK
*381 ANTENNA_mem_bottom_track_27\.sky130_fd_sc_hd__dfxtp_1_0__CLK
*382 ANTENNA_mem_bottom_track_27\.sky130_fd_sc_hd__dfxtp_1_1__CLK
*383 ANTENNA_mem_bottom_track_29\.sky130_fd_sc_hd__dfxtp_1_0__CLK
*384 ANTENNA_mem_bottom_track_29\.sky130_fd_sc_hd__dfxtp_1_1__CLK
*385 ANTENNA_mem_bottom_track_3\.sky130_fd_sc_hd__dfxtp_1_0__CLK
*386 ANTENNA_mem_bottom_track_3\.sky130_fd_sc_hd__dfxtp_1_0__D
*387 ANTENNA_mem_bottom_track_3\.sky130_fd_sc_hd__dfxtp_1_1__CLK
*388 ANTENNA_mem_bottom_track_3\.sky130_fd_sc_hd__dfxtp_1_1__D
*389 ANTENNA_mem_bottom_track_3\.sky130_fd_sc_hd__dfxtp_1_2__CLK
*390 ANTENNA_mem_bottom_track_5\.sky130_fd_sc_hd__dfxtp_1_0__CLK
*391 ANTENNA_mem_bottom_track_5\.sky130_fd_sc_hd__dfxtp_1_1__CLK
*392 ANTENNA_mem_bottom_track_5\.sky130_fd_sc_hd__dfxtp_1_2__CLK
*393 ANTENNA_mem_bottom_track_7\.sky130_fd_sc_hd__dfxtp_1_0__CLK
*394 ANTENNA_mem_bottom_track_7\.sky130_fd_sc_hd__dfxtp_1_1__CLK
*395 ANTENNA_mem_bottom_track_7\.sky130_fd_sc_hd__dfxtp_1_2__CLK
*396 ANTENNA_mem_bottom_track_9\.sky130_fd_sc_hd__dfxtp_1_0__CLK
*397 ANTENNA_mem_bottom_track_9\.sky130_fd_sc_hd__dfxtp_1_1__CLK
*398 ANTENNA_mem_left_track_1\.sky130_fd_sc_hd__dfxtp_1_0__CLK
*399 ANTENNA_mem_left_track_1\.sky130_fd_sc_hd__dfxtp_1_1__CLK
*400 ANTENNA_mem_left_track_1\.sky130_fd_sc_hd__dfxtp_1_2__CLK
*401 ANTENNA_mem_left_track_11\.sky130_fd_sc_hd__dfxtp_1_0__CLK
*402 ANTENNA_mem_left_track_11\.sky130_fd_sc_hd__dfxtp_1_1__CLK
*403 ANTENNA_mem_left_track_13\.sky130_fd_sc_hd__dfxtp_1_0__CLK
*404 ANTENNA_mem_left_track_13\.sky130_fd_sc_hd__dfxtp_1_1__CLK
*405 ANTENNA_mem_left_track_15\.sky130_fd_sc_hd__dfxtp_1_0__CLK
*406 ANTENNA_mem_left_track_15\.sky130_fd_sc_hd__dfxtp_1_1__CLK
*407 ANTENNA_mem_left_track_17\.sky130_fd_sc_hd__dfxtp_1_0__CLK
*408 ANTENNA_mem_left_track_17\.sky130_fd_sc_hd__dfxtp_1_1__CLK
*409 ANTENNA_mem_left_track_19\.sky130_fd_sc_hd__dfxtp_1_0__CLK
*410 ANTENNA_mem_left_track_19\.sky130_fd_sc_hd__dfxtp_1_1__CLK
*411 ANTENNA_mem_left_track_21\.sky130_fd_sc_hd__dfxtp_1_0__CLK
*412 ANTENNA_mem_left_track_21\.sky130_fd_sc_hd__dfxtp_1_1__CLK
*413 ANTENNA_mem_left_track_23\.sky130_fd_sc_hd__dfxtp_1_0__CLK
*414 ANTENNA_mem_left_track_23\.sky130_fd_sc_hd__dfxtp_1_1__CLK
*415 ANTENNA_mem_left_track_25\.sky130_fd_sc_hd__dfxtp_1_0__CLK
*416 ANTENNA_mem_left_track_25\.sky130_fd_sc_hd__dfxtp_1_1__CLK
*417 ANTENNA_mem_left_track_25\.sky130_fd_sc_hd__dfxtp_1_1__D
*418 ANTENNA_mem_left_track_27\.sky130_fd_sc_hd__dfxtp_1_0__CLK
*419 ANTENNA_mem_left_track_27\.sky130_fd_sc_hd__dfxtp_1_0__D
*420 ANTENNA_mem_left_track_27\.sky130_fd_sc_hd__dfxtp_1_1__CLK
*421 ANTENNA_mem_left_track_29\.sky130_fd_sc_hd__dfxtp_1_0__CLK
*422 ANTENNA_mem_left_track_29\.sky130_fd_sc_hd__dfxtp_1_1__CLK
*423 ANTENNA_mem_left_track_3\.sky130_fd_sc_hd__dfxtp_1_0__CLK
*424 ANTENNA_mem_left_track_3\.sky130_fd_sc_hd__dfxtp_1_1__CLK
*425 ANTENNA_mem_left_track_3\.sky130_fd_sc_hd__dfxtp_1_2__CLK
*426 ANTENNA_mem_left_track_31\.sky130_fd_sc_hd__dfxtp_1_0__CLK
*427 ANTENNA_mem_left_track_31\.sky130_fd_sc_hd__dfxtp_1_1__CLK
*428 ANTENNA_mem_left_track_33\.sky130_fd_sc_hd__dfxtp_1_0__CLK
*429 ANTENNA_mem_left_track_33\.sky130_fd_sc_hd__dfxtp_1_1__CLK
*430 ANTENNA_mem_left_track_35\.sky130_fd_sc_hd__dfxtp_1_0__CLK
*431 ANTENNA_mem_left_track_35\.sky130_fd_sc_hd__dfxtp_1_1__CLK
*432 ANTENNA_mem_left_track_37\.sky130_fd_sc_hd__dfxtp_1_0__CLK
*433 ANTENNA_mem_left_track_37\.sky130_fd_sc_hd__dfxtp_1_1__CLK
*434 ANTENNA_mem_left_track_39\.sky130_fd_sc_hd__dfxtp_1_0__CLK
*435 ANTENNA_mem_left_track_39\.sky130_fd_sc_hd__dfxtp_1_1__CLK
*436 ANTENNA_mem_left_track_5\.sky130_fd_sc_hd__dfxtp_1_0__CLK
*437 ANTENNA_mem_left_track_5\.sky130_fd_sc_hd__dfxtp_1_1__CLK
*438 ANTENNA_mem_left_track_5\.sky130_fd_sc_hd__dfxtp_1_2__CLK
*439 ANTENNA_mem_left_track_7\.sky130_fd_sc_hd__dfxtp_1_0__CLK
*440 ANTENNA_mem_left_track_7\.sky130_fd_sc_hd__dfxtp_1_1__CLK
*441 ANTENNA_mem_left_track_7\.sky130_fd_sc_hd__dfxtp_1_2__CLK
*442 ANTENNA_mem_left_track_9\.sky130_fd_sc_hd__dfxtp_1_0__CLK
*443 ANTENNA_mem_left_track_9\.sky130_fd_sc_hd__dfxtp_1_1__CLK
*444 ANTENNA_mux_bottom_track_1\.mux_l1_in_0__A0
*445 ANTENNA_mux_bottom_track_1\.mux_l1_in_0__A1
*446 ANTENNA_mux_bottom_track_1\.mux_l1_in_1__A0
*447 ANTENNA_mux_bottom_track_1\.mux_l1_in_1__A1
*448 ANTENNA_mux_bottom_track_1\.mux_l1_in_2__A0
*449 ANTENNA_mux_bottom_track_1\.mux_l1_in_2__A1
*450 ANTENNA_mux_bottom_track_1\.mux_l3_in_0__S
*451 ANTENNA_mux_bottom_track_11\.mux_l1_in_0__A0
*452 ANTENNA_mux_bottom_track_11\.mux_l1_in_0__A1
*453 ANTENNA_mux_bottom_track_13\.mux_l1_in_0__A0
*454 ANTENNA_mux_bottom_track_13\.mux_l1_in_0__A1
*455 ANTENNA_mux_bottom_track_15\.mux_l1_in_0__A0
*456 ANTENNA_mux_bottom_track_15\.mux_l1_in_0__A1
*457 ANTENNA_mux_bottom_track_17\.mux_l1_in_0__A0
*458 ANTENNA_mux_bottom_track_17\.mux_l1_in_0__A1
*459 ANTENNA_mux_bottom_track_19\.mux_l1_in_0__A0
*460 ANTENNA_mux_bottom_track_19\.mux_l1_in_0__A1
*461 ANTENNA_mux_bottom_track_21\.mux_l1_in_0__A0
*462 ANTENNA_mux_bottom_track_21\.mux_l1_in_0__A1
*463 ANTENNA_mux_bottom_track_23\.mux_l1_in_0__A0
*464 ANTENNA_mux_bottom_track_23\.mux_l1_in_0__A1
*465 ANTENNA_mux_bottom_track_25\.mux_l1_in_0__A0
*466 ANTENNA_mux_bottom_track_25\.mux_l1_in_0__A1
*467 ANTENNA_mux_bottom_track_25\.mux_l1_in_1__A1
*468 ANTENNA_mux_bottom_track_27\.mux_l1_in_0__A0
*469 ANTENNA_mux_bottom_track_27\.mux_l1_in_0__A1
*470 ANTENNA_mux_bottom_track_29\.mux_l1_in_0__A0
*471 ANTENNA_mux_bottom_track_29\.mux_l1_in_0__A1
*472 ANTENNA_mux_bottom_track_3\.mux_l1_in_0__A0
*473 ANTENNA_mux_bottom_track_3\.mux_l1_in_0__A1
*474 ANTENNA_mux_bottom_track_3\.mux_l1_in_0__S
*475 ANTENNA_mux_bottom_track_3\.mux_l1_in_1__A0
*476 ANTENNA_mux_bottom_track_3\.mux_l1_in_1__A1
*477 ANTENNA_mux_bottom_track_3\.mux_l1_in_1__S
*478 ANTENNA_mux_bottom_track_3\.mux_l2_in_1__A1
*479 ANTENNA_mux_bottom_track_5\.mux_l1_in_0__A0
*480 ANTENNA_mux_bottom_track_5\.mux_l1_in_0__A1
*481 ANTENNA_mux_bottom_track_5\.mux_l1_in_1__A0
*482 ANTENNA_mux_bottom_track_5\.mux_l1_in_1__A1
*483 ANTENNA_mux_bottom_track_5\.mux_l1_in_2__A0
*484 ANTENNA_mux_bottom_track_5\.mux_l1_in_2__A1
*485 ANTENNA_mux_bottom_track_7\.mux_l1_in_0__A0
*486 ANTENNA_mux_bottom_track_7\.mux_l1_in_0__A1
*487 ANTENNA_mux_bottom_track_7\.mux_l1_in_1__A0
*488 ANTENNA_mux_bottom_track_7\.mux_l1_in_1__A1
*489 ANTENNA_mux_bottom_track_7\.mux_l2_in_1__A1
*490 ANTENNA_mux_bottom_track_9\.mux_l1_in_0__A0
*491 ANTENNA_mux_bottom_track_9\.mux_l1_in_0__A1
*492 ANTENNA_mux_left_track_1\.mux_l1_in_0__A0
*493 ANTENNA_mux_left_track_1\.mux_l1_in_0__A1
*494 ANTENNA_mux_left_track_1\.mux_l1_in_1__A0
*495 ANTENNA_mux_left_track_1\.mux_l1_in_1__A1
*496 ANTENNA_mux_left_track_1\.mux_l1_in_2__A0
*497 ANTENNA_mux_left_track_1\.mux_l1_in_2__A1
*498 ANTENNA_mux_left_track_11\.mux_l1_in_0__A0
*499 ANTENNA_mux_left_track_11\.mux_l1_in_0__A1
*500 ANTENNA_mux_left_track_13\.mux_l1_in_0__A0
*501 ANTENNA_mux_left_track_13\.mux_l1_in_0__A1
*502 ANTENNA_mux_left_track_15\.mux_l1_in_0__A0
*503 ANTENNA_mux_left_track_15\.mux_l1_in_0__A1
*504 ANTENNA_mux_left_track_17\.mux_l1_in_0__A0
*505 ANTENNA_mux_left_track_17\.mux_l1_in_0__A1
*506 ANTENNA_mux_left_track_19\.mux_l1_in_0__A0
*507 ANTENNA_mux_left_track_19\.mux_l1_in_0__A1
*508 ANTENNA_mux_left_track_21\.mux_l1_in_0__A0
*509 ANTENNA_mux_left_track_21\.mux_l1_in_0__A1
*510 ANTENNA_mux_left_track_23\.mux_l1_in_0__A0
*511 ANTENNA_mux_left_track_23\.mux_l1_in_0__A1
*512 ANTENNA_mux_left_track_25\.mux_l1_in_0__A0
*513 ANTENNA_mux_left_track_25\.mux_l1_in_0__A1
*514 ANTENNA_mux_left_track_25\.mux_l1_in_0__S
*515 ANTENNA_mux_left_track_25\.mux_l1_in_1__A1
*516 ANTENNA_mux_left_track_25\.mux_l1_in_1__S
*517 ANTENNA_mux_left_track_25\.mux_l2_in_0__S
*518 ANTENNA_mux_left_track_27\.mux_l1_in_0__A0
*519 ANTENNA_mux_left_track_27\.mux_l1_in_0__A1
*520 ANTENNA_mux_left_track_29\.mux_l1_in_0__A0
*521 ANTENNA_mux_left_track_29\.mux_l1_in_0__A1
*522 ANTENNA_mux_left_track_3\.mux_l1_in_0__A0
*523 ANTENNA_mux_left_track_3\.mux_l1_in_0__A1
*524 ANTENNA_mux_left_track_3\.mux_l1_in_1__A0
*525 ANTENNA_mux_left_track_3\.mux_l1_in_1__A1
*526 ANTENNA_mux_left_track_3\.mux_l2_in_1__A1
*527 ANTENNA_mux_left_track_31\.mux_l1_in_0__A0
*528 ANTENNA_mux_left_track_31\.mux_l1_in_0__A1
*529 ANTENNA_mux_left_track_33\.mux_l1_in_0__A0
*530 ANTENNA_mux_left_track_33\.mux_l1_in_0__A1
*531 ANTENNA_mux_left_track_35\.mux_l1_in_0__A0
*532 ANTENNA_mux_left_track_35\.mux_l1_in_0__A1
*533 ANTENNA_mux_left_track_37\.mux_l1_in_0__A0
*534 ANTENNA_mux_left_track_37\.mux_l1_in_0__A1
*535 ANTENNA_mux_left_track_39\.mux_l1_in_0__A0
*536 ANTENNA_mux_left_track_39\.mux_l1_in_0__A1
*537 ANTENNA_mux_left_track_39\.mux_l2_in_0__S
*538 ANTENNA_mux_left_track_5\.mux_l1_in_0__A0
*539 ANTENNA_mux_left_track_5\.mux_l1_in_0__A1
*540 ANTENNA_mux_left_track_5\.mux_l1_in_1__A0
*541 ANTENNA_mux_left_track_5\.mux_l1_in_1__A1
*542 ANTENNA_mux_left_track_5\.mux_l1_in_2__A0
*543 ANTENNA_mux_left_track_5\.mux_l1_in_2__A1
*544 ANTENNA_mux_left_track_7\.mux_l1_in_0__A0
*545 ANTENNA_mux_left_track_7\.mux_l1_in_0__A1
*546 ANTENNA_mux_left_track_7\.mux_l1_in_1__A0
*547 ANTENNA_mux_left_track_7\.mux_l1_in_1__A1
*548 ANTENNA_mux_left_track_7\.mux_l2_in_1__A1
*549 ANTENNA_mux_left_track_9\.mux_l1_in_0__A0
*550 ANTENNA_mux_left_track_9\.mux_l1_in_0__A1
*551 ANTENNA_mux_left_track_9\.mux_l1_in_1__A1
*552 ANTENNA_prog_clk_0_FTB00_A
*553 FILLER_0_104
*554 FILLER_0_110
*555 FILLER_0_129
*556 FILLER_0_13
*557 FILLER_0_133
*558 FILLER_0_137
*559 FILLER_0_141
*560 FILLER_0_149
*561 FILLER_0_156
*562 FILLER_0_169
*563 FILLER_0_17
*564 FILLER_0_177
*565 FILLER_0_180
*566 FILLER_0_184
*567 FILLER_0_188
*568 FILLER_0_194
*569 FILLER_0_197
*570 FILLER_0_215
*571 FILLER_0_219
*572 FILLER_0_25
*573 FILLER_0_29
*574 FILLER_0_3
*575 FILLER_0_37
*576 FILLER_0_42
*577 FILLER_0_48
*578 FILLER_0_54
*579 FILLER_0_57
*580 FILLER_0_64
*581 FILLER_0_72
*582 FILLER_0_76
*583 FILLER_0_82
*584 FILLER_0_87
*585 FILLER_0_98
*586 FILLER_10_110
*587 FILLER_10_127
*588 FILLER_10_133
*589 FILLER_10_137
*590 FILLER_10_141
*591 FILLER_10_15
*592 FILLER_10_159
*593 FILLER_10_177
*594 FILLER_10_181
*595 FILLER_10_187
*596 FILLER_10_19
*597 FILLER_10_195
*598 FILLER_10_213
*599 FILLER_10_217
*600 FILLER_10_22
*601 FILLER_10_221
*602 FILLER_10_26
*603 FILLER_10_3
*604 FILLER_10_31
*605 FILLER_10_42
*606 FILLER_10_53
*607 FILLER_10_57
*608 FILLER_10_60
*609 FILLER_10_64
*610 FILLER_10_75
*611 FILLER_10_79
*612 FILLER_10_82
*613 FILLER_10_87
*614 FILLER_10_98
*615 FILLER_11_107
*616 FILLER_11_110
*617 FILLER_11_113
*618 FILLER_11_131
*619 FILLER_11_149
*620 FILLER_11_15
*621 FILLER_11_153
*622 FILLER_11_157
*623 FILLER_11_160
*624 FILLER_11_185
*625 FILLER_11_203
*626 FILLER_11_21
*627 FILLER_11_221
*628 FILLER_11_25
*629 FILLER_11_28
*630 FILLER_11_3
*631 FILLER_11_39
*632 FILLER_11_50
*633 FILLER_11_54
*634 FILLER_11_57
*635 FILLER_11_63
*636 FILLER_11_74
*637 FILLER_11_85
*638 FILLER_11_89
*639 FILLER_11_99
*640 FILLER_12_110
*641 FILLER_12_128
*642 FILLER_12_13
*643 FILLER_12_132
*644 FILLER_12_141
*645 FILLER_12_158
*646 FILLER_12_177
*647 FILLER_12_181
*648 FILLER_12_187
*649 FILLER_12_191
*650 FILLER_12_195
*651 FILLER_12_197
*652 FILLER_12_200
*653 FILLER_12_218
*654 FILLER_12_222
*655 FILLER_12_24
*656 FILLER_12_29
*657 FILLER_12_3
*658 FILLER_12_32
*659 FILLER_12_43
*660 FILLER_12_49
*661 FILLER_12_53
*662 FILLER_12_56
*663 FILLER_12_61
*664 FILLER_12_66
*665 FILLER_12_77
*666 FILLER_12_81
*667 FILLER_12_87
*668 FILLER_12_92
*669 FILLER_13_110
*670 FILLER_13_129
*671 FILLER_13_133
*672 FILLER_13_145
*673 FILLER_13_15
*674 FILLER_13_157
*675 FILLER_13_165
*676 FILLER_13_169
*677 FILLER_13_189
*678 FILLER_13_194
*679 FILLER_13_21
*680 FILLER_13_214
*681 FILLER_13_218
*682 FILLER_13_221
*683 FILLER_13_24
*684 FILLER_13_3
*685 FILLER_13_35
*686 FILLER_13_47
*687 FILLER_13_51
*688 FILLER_13_54
*689 FILLER_13_66
*690 FILLER_13_77
*691 FILLER_13_82
*692 FILLER_13_88
*693 FILLER_13_99
*694 FILLER_14_102
*695 FILLER_14_121
*696 FILLER_14_125
*697 FILLER_14_137
*698 FILLER_14_141
*699 FILLER_14_145
*700 FILLER_14_148
*701 FILLER_14_15
*702 FILLER_14_160
*703 FILLER_14_166
*704 FILLER_14_174
*705 FILLER_14_18
*706 FILLER_14_192
*707 FILLER_14_213
*708 FILLER_14_217
*709 FILLER_14_22
*710 FILLER_14_221
*711 FILLER_14_26
*712 FILLER_14_3
*713 FILLER_14_33
*714 FILLER_14_45
*715 FILLER_14_56
*716 FILLER_14_60
*717 FILLER_14_63
*718 FILLER_14_67
*719 FILLER_14_71
*720 FILLER_14_82
*721 FILLER_14_94
*722 FILLER_14_98
*723 FILLER_15_111
*724 FILLER_15_113
*725 FILLER_15_119
*726 FILLER_15_122
*727 FILLER_15_146
*728 FILLER_15_164
*729 FILLER_15_18
*730 FILLER_15_185
*731 FILLER_15_203
*732 FILLER_15_221
*733 FILLER_15_24
*734 FILLER_15_3
*735 FILLER_15_35
*736 FILLER_15_48
*737 FILLER_15_52
*738 FILLER_15_57
*739 FILLER_15_61
*740 FILLER_15_72
*741 FILLER_15_77
*742 FILLER_15_90
*743 FILLER_15_94
*744 FILLER_15_99
*745 FILLER_16_100
*746 FILLER_16_120
*747 FILLER_16_138
*748 FILLER_16_143
*749 FILLER_16_16
*750 FILLER_16_161
*751 FILLER_16_179
*752 FILLER_16_183
*753 FILLER_16_187
*754 FILLER_16_191
*755 FILLER_16_195
*756 FILLER_16_197
*757 FILLER_16_21
*758 FILLER_16_214
*759 FILLER_16_218
*760 FILLER_16_222
*761 FILLER_16_26
*762 FILLER_16_29
*763 FILLER_16_33
*764 FILLER_16_46
*765 FILLER_16_5
*766 FILLER_16_57
*767 FILLER_16_64
*768 FILLER_16_68
*769 FILLER_16_71
*770 FILLER_16_82
*771 FILLER_16_88
*772 FILLER_16_92
*773 FILLER_16_96
*774 FILLER_17_110
*775 FILLER_17_115
*776 FILLER_17_135
*777 FILLER_17_139
*778 FILLER_17_158
*779 FILLER_17_162
*780 FILLER_17_166
*781 FILLER_17_185
*782 FILLER_17_20
*783 FILLER_17_203
*784 FILLER_17_221
*785 FILLER_17_25
*786 FILLER_17_29
*787 FILLER_17_40
*788 FILLER_17_51
*789 FILLER_17_55
*790 FILLER_17_66
*791 FILLER_17_70
*792 FILLER_17_81
*793 FILLER_17_9
*794 FILLER_17_92
*795 FILLER_18_109
*796 FILLER_18_114
*797 FILLER_18_132
*798 FILLER_18_136
*799 FILLER_18_141
*800 FILLER_18_153
*801 FILLER_18_157
*802 FILLER_18_174
*803 FILLER_18_178
*804 FILLER_18_190
*805 FILLER_18_197
*806 FILLER_18_20
*807 FILLER_18_205
*808 FILLER_18_217
*809 FILLER_18_221
*810 FILLER_18_24
*811 FILLER_18_29
*812 FILLER_18_3
*813 FILLER_18_33
*814 FILLER_18_44
*815 FILLER_18_49
*816 FILLER_18_60
*817 FILLER_18_71
*818 FILLER_18_82
*819 FILLER_18_87
*820 FILLER_18_9
*821 FILLER_18_98
*822 FILLER_19_103
*823 FILLER_19_107
*824 FILLER_19_111
*825 FILLER_19_113
*826 FILLER_19_117
*827 FILLER_19_129
*828 FILLER_19_13
*829 FILLER_19_134
*830 FILLER_19_146
*831 FILLER_19_158
*832 FILLER_19_166
*833 FILLER_19_169
*834 FILLER_19_181
*835 FILLER_19_19
*836 FILLER_19_193
*837 FILLER_19_205
*838 FILLER_19_217
*839 FILLER_19_27
*840 FILLER_19_39
*841 FILLER_19_43
*842 FILLER_19_5
*843 FILLER_19_54
*844 FILLER_19_57
*845 FILLER_19_61
*846 FILLER_19_66
*847 FILLER_19_77
*848 FILLER_19_81
*849 FILLER_19_85
*850 FILLER_19_88
*851 FILLER_19_92
*852 FILLER_1_110
*853 FILLER_1_12
*854 FILLER_1_129
*855 FILLER_1_135
*856 FILLER_1_141
*857 FILLER_1_149
*858 FILLER_1_155
*859 FILLER_1_161
*860 FILLER_1_166
*861 FILLER_1_178
*862 FILLER_1_18
*863 FILLER_1_183
*864 FILLER_1_187
*865 FILLER_1_205
*866 FILLER_1_219
*867 FILLER_1_22
*868 FILLER_1_3
*869 FILLER_1_34
*870 FILLER_1_42
*871 FILLER_1_48
*872 FILLER_1_54
*873 FILLER_1_57
*874 FILLER_1_6
*875 FILLER_1_69
*876 FILLER_1_76
*877 FILLER_1_84
*878 FILLER_1_92
*879 FILLER_20_108
*880 FILLER_20_113
*881 FILLER_20_117
*882 FILLER_20_128
*883 FILLER_20_141
*884 FILLER_20_153
*885 FILLER_20_16
*886 FILLER_20_165
*887 FILLER_20_177
*888 FILLER_20_189
*889 FILLER_20_195
*890 FILLER_20_197
*891 FILLER_20_209
*892 FILLER_20_221
*893 FILLER_20_26
*894 FILLER_20_31
*895 FILLER_20_42
*896 FILLER_20_47
*897 FILLER_20_5
*898 FILLER_20_60
*899 FILLER_20_64
*900 FILLER_20_68
*901 FILLER_20_81
*902 FILLER_20_88
*903 FILLER_20_92
*904 FILLER_20_97
*905 FILLER_21_110
*906 FILLER_21_12
*907 FILLER_21_122
*908 FILLER_21_133
*909 FILLER_21_145
*910 FILLER_21_157
*911 FILLER_21_165
*912 FILLER_21_169
*913 FILLER_21_18
*914 FILLER_21_181
*915 FILLER_21_193
*916 FILLER_21_205
*917 FILLER_21_217
*918 FILLER_21_22
*919 FILLER_21_3
*920 FILLER_21_33
*921 FILLER_21_38
*922 FILLER_21_50
*923 FILLER_21_54
*924 FILLER_21_57
*925 FILLER_21_62
*926 FILLER_21_7
*927 FILLER_21_72
*928 FILLER_21_83
*929 FILLER_21_87
*930 FILLER_21_99
*931 FILLER_22_106
*932 FILLER_22_112
*933 FILLER_22_116
*934 FILLER_22_124
*935 FILLER_22_128
*936 FILLER_22_141
*937 FILLER_22_15