*SPEF "ieee 1481-1999"
*DESIGN "sb_2__0_"
*DATE "11:11:11 Fri 11 11, 1111"
*VENDOR "OpenRCX"
*PROGRAM "Parallel Extraction"
*VERSION "1.0"
*DESIGN_FLOW "NAME_SCOPE LOCAL" "PIN_CAP NONE"
*DIVIDER /
*DELIMITER :
*BUS_DELIMITER []
*T_UNIT 1 NS
*C_UNIT 1 PF
*R_UNIT 1 OHM
*L_UNIT 1 HENRY

*NAME_MAP
*3 ccff_head
*4 ccff_tail
*5 chanx_left_in[0]
*6 chanx_left_in[10]
*7 chanx_left_in[11]
*8 chanx_left_in[12]
*9 chanx_left_in[13]
*10 chanx_left_in[14]
*11 chanx_left_in[15]
*12 chanx_left_in[16]
*13 chanx_left_in[17]
*14 chanx_left_in[18]
*15 chanx_left_in[19]
*16 chanx_left_in[1]
*17 chanx_left_in[2]
*18 chanx_left_in[3]
*19 chanx_left_in[4]
*20 chanx_left_in[5]
*21 chanx_left_in[6]
*22 chanx_left_in[7]
*23 chanx_left_in[8]
*24 chanx_left_in[9]
*25 chanx_left_out[0]
*26 chanx_left_out[10]
*27 chanx_left_out[11]
*28 chanx_left_out[12]
*29 chanx_left_out[13]
*30 chanx_left_out[14]
*31 chanx_left_out[15]
*32 chanx_left_out[16]
*33 chanx_left_out[17]
*34 chanx_left_out[18]
*35 chanx_left_out[19]
*36 chanx_left_out[1]
*37 chanx_left_out[2]
*38 chanx_left_out[3]
*39 chanx_left_out[4]
*40 chanx_left_out[5]
*41 chanx_left_out[6]
*42 chanx_left_out[7]
*43 chanx_left_out[8]
*44 chanx_left_out[9]
*45 chany_top_in[0]
*46 chany_top_in[10]
*47 chany_top_in[11]
*48 chany_top_in[12]
*49 chany_top_in[13]
*50 chany_top_in[14]
*51 chany_top_in[15]
*52 chany_top_in[16]
*53 chany_top_in[17]
*54 chany_top_in[18]
*55 chany_top_in[19]
*56 chany_top_in[1]
*57 chany_top_in[2]
*58 chany_top_in[3]
*59 chany_top_in[4]
*60 chany_top_in[5]
*61 chany_top_in[6]
*62 chany_top_in[7]
*63 chany_top_in[8]
*64 chany_top_in[9]
*65 chany_top_out[0]
*66 chany_top_out[10]
*67 chany_top_out[11]
*68 chany_top_out[12]
*69 chany_top_out[13]
*70 chany_top_out[14]
*71 chany_top_out[15]
*72 chany_top_out[16]
*73 chany_top_out[17]
*74 chany_top_out[18]
*75 chany_top_out[19]
*76 chany_top_out[1]
*77 chany_top_out[2]
*78 chany_top_out[3]
*79 chany_top_out[4]
*80 chany_top_out[5]
*81 chany_top_out[6]
*82 chany_top_out[7]
*83 chany_top_out[8]
*84 chany_top_out[9]
*85 left_bottom_grid_pin_11_
*86 left_bottom_grid_pin_13_
*87 left_bottom_grid_pin_15_
*88 left_bottom_grid_pin_17_
*89 left_bottom_grid_pin_1_
*90 left_bottom_grid_pin_3_
*91 left_bottom_grid_pin_5_
*92 left_bottom_grid_pin_7_
*93 left_bottom_grid_pin_9_
*94 prog_clk_0_N_in
*95 top_left_grid_pin_42_
*96 top_left_grid_pin_43_
*97 top_left_grid_pin_44_
*98 top_left_grid_pin_45_
*99 top_left_grid_pin_46_
*100 top_left_grid_pin_47_
*101 top_left_grid_pin_48_
*102 top_left_grid_pin_49_
*103 top_right_grid_pin_1_
*104 mem_left_track_1\.ccff_head
*105 mem_left_track_1\.ccff_tail
*106 mem_left_track_1\.mem_out\[0\]
*107 mem_left_track_1\.mem_out\[1\]
*108 mem_left_track_1\.prog_clk
*109 mem_left_track_11\.ccff_head
*110 mem_left_track_11\.ccff_tail
*111 mem_left_track_11\.mem_out\[0\]
*112 mem_left_track_13\.ccff_tail
*113 mem_left_track_13\.mem_out\[0\]
*114 mem_left_track_15\.ccff_tail
*115 mem_left_track_15\.mem_out\[0\]
*116 mem_left_track_17\.ccff_tail
*117 mem_left_track_17\.mem_out\[0\]
*118 mem_left_track_19\.ccff_tail
*119 mem_left_track_19\.mem_out\[0\]
*120 mem_left_track_21\.ccff_tail
*121 mem_left_track_21\.mem_out\[0\]
*122 mem_left_track_23\.ccff_tail
*123 mem_left_track_23\.mem_out\[0\]
*124 mem_left_track_25\.ccff_tail
*125 mem_left_track_25\.mem_out\[0\]
*126 mem_left_track_27\.ccff_tail
*127 mem_left_track_27\.mem_out\[0\]
*128 mem_left_track_29\.ccff_tail
*129 mem_left_track_29\.mem_out\[0\]
*130 mem_left_track_3\.ccff_tail
*131 mem_left_track_3\.mem_out\[0\]
*132 mem_left_track_3\.mem_out\[1\]
*133 mem_left_track_31\.ccff_tail
*134 mem_left_track_31\.mem_out\[0\]
*135 mem_left_track_33\.ccff_tail
*136 mem_left_track_33\.mem_out\[0\]
*137 mem_left_track_35\.ccff_tail
*138 mem_left_track_35\.mem_out\[0\]
*139 mem_left_track_37\.ccff_tail
*140 mem_left_track_37\.mem_out\[0\]
*141 mem_left_track_39\.mem_out\[0\]
*142 mem_left_track_5\.ccff_tail
*143 mem_left_track_5\.mem_out\[0\]
*144 mem_left_track_5\.mem_out\[1\]
*145 mem_left_track_7\.ccff_tail
*146 mem_left_track_7\.mem_out\[0\]
*147 mem_left_track_7\.mem_out\[1\]
*148 mem_left_track_9\.mem_out\[0\]
*149 mem_top_track_0\.ccff_tail
*150 mem_top_track_0\.mem_out\[0\]
*151 mem_top_track_0\.mem_out\[1\]
*152 mem_top_track_10\.ccff_head
*153 mem_top_track_10\.ccff_tail
*154 mem_top_track_10\.mem_out\[0\]
*155 mem_top_track_12\.ccff_tail
*156 mem_top_track_12\.mem_out\[0\]
*157 mem_top_track_14\.ccff_tail
*158 mem_top_track_14\.mem_out\[0\]
*159 mem_top_track_16\.ccff_tail
*160 mem_top_track_16\.mem_out\[0\]
*161 mem_top_track_18\.ccff_tail
*162 mem_top_track_18\.mem_out\[0\]
*163 mem_top_track_2\.ccff_tail
*164 mem_top_track_2\.mem_out\[0\]
*165 mem_top_track_2\.mem_out\[1\]
*166 mem_top_track_20\.ccff_tail
*167 mem_top_track_20\.mem_out\[0\]
*168 mem_top_track_22\.ccff_tail
*169 mem_top_track_22\.mem_out\[0\]
*170 mem_top_track_24\.ccff_tail
*171 mem_top_track_24\.mem_out\[0\]
*172 mem_top_track_26\.mem_out\[0\]
*173 mem_top_track_4\.ccff_tail
*174 mem_top_track_4\.mem_out\[0\]
*175 mem_top_track_4\.mem_out\[1\]
*176 mem_top_track_6\.ccff_tail
*177 mem_top_track_6\.mem_out\[0\]
*178 mem_top_track_6\.mem_out\[1\]
*179 mem_top_track_8\.mem_out\[0\]
*180 mux_left_track_1\.out
*181 mux_left_track_1\.sky130_fd_sc_hd__mux2_1_0_X
*182 mux_left_track_1\.sky130_fd_sc_hd__mux2_1_1_X
*183 mux_left_track_1\.sky130_fd_sc_hd__mux2_1_2_X
*184 mux_left_track_1\.sky130_fd_sc_hd__mux2_1_3_X
*185 mux_left_track_1\.sky130_fd_sc_hd__mux2_1_4_X
*186 mux_left_track_1\.sky130_fd_sc_hd__mux2_1_5_X
*187 mux_left_track_11\.out
*188 mux_left_track_11\.sky130_fd_sc_hd__mux2_1_0_X
*189 mux_left_track_11\.sky130_fd_sc_hd__mux2_1_1_X
*190 mux_left_track_13\.out
*191 mux_left_track_13\.sky130_fd_sc_hd__mux2_1_0_X
*192 mux_left_track_13\.sky130_fd_sc_hd__mux2_1_1_X
*193 mux_left_track_15\.out
*194 mux_left_track_15\.sky130_fd_sc_hd__mux2_1_0_X
*195 mux_left_track_15\.sky130_fd_sc_hd__mux2_1_1_X
*196 mux_left_track_17\.out
*197 mux_left_track_17\.sky130_fd_sc_hd__mux2_1_0_X
*198 mux_left_track_17\.sky130_fd_sc_hd__mux2_1_1_X
*199 mux_left_track_19\.out
*200 mux_left_track_19\.sky130_fd_sc_hd__mux2_1_0_X
*201 mux_left_track_19\.sky130_fd_sc_hd__mux2_1_1_X
*202 mux_left_track_21\.out
*203 mux_left_track_21\.sky130_fd_sc_hd__mux2_1_0_X
*204 mux_left_track_21\.sky130_fd_sc_hd__mux2_1_1_X
*205 mux_left_track_23\.out
*206 mux_left_track_23\.sky130_fd_sc_hd__mux2_1_0_X
*207 mux_left_track_23\.sky130_fd_sc_hd__mux2_1_1_X
*208 mux_left_track_25\.out
*209 mux_left_track_25\.sky130_fd_sc_hd__mux2_1_0_X
*210 mux_left_track_25\.sky130_fd_sc_hd__mux2_1_1_X
*211 mux_left_track_25\.sky130_fd_sc_hd__mux2_1_2_X
*212 mux_left_track_27\.out
*213 mux_left_track_27\.sky130_fd_sc_hd__mux2_1_0_X
*214 mux_left_track_27\.sky130_fd_sc_hd__mux2_1_1_X
*215 mux_left_track_29\.out
*216 mux_left_track_29\.sky130_fd_sc_hd__mux2_1_0_X
*217 mux_left_track_29\.sky130_fd_sc_hd__mux2_1_1_X
*218 mux_left_track_3\.out
*219 mux_left_track_3\.sky130_fd_sc_hd__mux2_1_0_X
*220 mux_left_track_3\.sky130_fd_sc_hd__mux2_1_1_X
*221 mux_left_track_3\.sky130_fd_sc_hd__mux2_1_2_X
*222 mux_left_track_3\.sky130_fd_sc_hd__mux2_1_3_X
*223 mux_left_track_3\.sky130_fd_sc_hd__mux2_1_4_X
*224 mux_left_track_31\.out
*225 mux_left_track_31\.sky130_fd_sc_hd__mux2_1_0_X
*226 mux_left_track_31\.sky130_fd_sc_hd__mux2_1_1_X
*227 mux_left_track_33\.out
*228 mux_left_track_33\.sky130_fd_sc_hd__mux2_1_0_X
*229 mux_left_track_33\.sky130_fd_sc_hd__mux2_1_1_X
*230 mux_left_track_35\.out
*231 mux_left_track_35\.sky130_fd_sc_hd__mux2_1_0_X
*232 mux_left_track_35\.sky130_fd_sc_hd__mux2_1_1_X
*233 mux_left_track_37\.out
*234 mux_left_track_37\.sky130_fd_sc_hd__mux2_1_0_X
*235 mux_left_track_37\.sky130_fd_sc_hd__mux2_1_1_X
*236 mux_left_track_39\.out
*237 mux_left_track_39\.sky130_fd_sc_hd__mux2_1_0_X
*238 mux_left_track_39\.sky130_fd_sc_hd__mux2_1_1_X
*239 mux_left_track_5\.out
*240 mux_left_track_5\.sky130_fd_sc_hd__mux2_1_0_X
*241 mux_left_track_5\.sky130_fd_sc_hd__mux2_1_1_X
*242 mux_left_track_5\.sky130_fd_sc_hd__mux2_1_2_X
*243 mux_left_track_5\.sky130_fd_sc_hd__mux2_1_3_X
*244 mux_left_track_5\.sky130_fd_sc_hd__mux2_1_4_X
*245 mux_left_track_5\.sky130_fd_sc_hd__mux2_1_5_X
*246 mux_left_track_7\.out
*247 mux_left_track_7\.sky130_fd_sc_hd__mux2_1_0_X
*248 mux_left_track_7\.sky130_fd_sc_hd__mux2_1_1_X
*249 mux_left_track_7\.sky130_fd_sc_hd__mux2_1_2_X
*250 mux_left_track_7\.sky130_fd_sc_hd__mux2_1_3_X
*251 mux_left_track_7\.sky130_fd_sc_hd__mux2_1_4_X
*252 mux_left_track_9\.out
*253 mux_left_track_9\.sky130_fd_sc_hd__mux2_1_0_X
*254 mux_left_track_9\.sky130_fd_sc_hd__mux2_1_1_X
*255 mux_left_track_9\.sky130_fd_sc_hd__mux2_1_2_X
*256 mux_top_track_0\.out
*257 mux_top_track_0\.sky130_fd_sc_hd__mux2_1_0_X
*258 mux_top_track_0\.sky130_fd_sc_hd__mux2_1_1_X
*259 mux_top_track_0\.sky130_fd_sc_hd__mux2_1_2_X
*260 mux_top_track_0\.sky130_fd_sc_hd__mux2_1_3_X
*261 mux_top_track_0\.sky130_fd_sc_hd__mux2_1_4_X
*262 mux_top_track_0\.sky130_fd_sc_hd__mux2_1_5_X
*263 mux_top_track_10\.out
*264 mux_top_track_10\.sky130_fd_sc_hd__mux2_1_0_X
*265 mux_top_track_10\.sky130_fd_sc_hd__mux2_1_1_X
*266 mux_top_track_12\.out
*267 mux_top_track_12\.sky130_fd_sc_hd__mux2_1_0_X
*268 mux_top_track_12\.sky130_fd_sc_hd__mux2_1_1_X
*269 mux_top_track_14\.out
*270 mux_top_track_14\.sky130_fd_sc_hd__mux2_1_0_X
*271 mux_top_track_14\.sky130_fd_sc_hd__mux2_1_1_X
*272 mux_top_track_16\.out
*273 mux_top_track_16\.sky130_fd_sc_hd__mux2_1_0_X
*274 mux_top_track_16\.sky130_fd_sc_hd__mux2_1_1_X
*275 mux_top_track_18\.out
*276 mux_top_track_18\.sky130_fd_sc_hd__mux2_1_0_X
*277 mux_top_track_18\.sky130_fd_sc_hd__mux2_1_1_X
*278 mux_top_track_2\.out
*279 mux_top_track_2\.sky130_fd_sc_hd__mux2_1_0_X
*280 mux_top_track_2\.sky130_fd_sc_hd__mux2_1_1_X
*281 mux_top_track_2\.sky130_fd_sc_hd__mux2_1_2_X
*282 mux_top_track_2\.sky130_fd_sc_hd__mux2_1_3_X
*283 mux_top_track_2\.sky130_fd_sc_hd__mux2_1_4_X
*284 mux_top_track_20\.out
*285 mux_top_track_20\.sky130_fd_sc_hd__mux2_1_0_X
*286 mux_top_track_20\.sky130_fd_sc_hd__mux2_1_1_X
*287 mux_top_track_22\.out
*288 mux_top_track_22\.sky130_fd_sc_hd__mux2_1_0_X
*289 mux_top_track_22\.sky130_fd_sc_hd__mux2_1_1_X
*290 mux_top_track_24\.out
*291 mux_top_track_24\.sky130_fd_sc_hd__mux2_1_0_X
*292 mux_top_track_24\.sky130_fd_sc_hd__mux2_1_1_X
*293 mux_top_track_24\.sky130_fd_sc_hd__mux2_1_2_X
*294 mux_top_track_26\.out
*295 mux_top_track_26\.sky130_fd_sc_hd__mux2_1_0_X
*296 mux_top_track_26\.sky130_fd_sc_hd__mux2_1_1_X
*297 mux_top_track_4\.out
*298 mux_top_track_4\.sky130_fd_sc_hd__mux2_1_0_X
*299 mux_top_track_4\.sky130_fd_sc_hd__mux2_1_1_X
*300 mux_top_track_4\.sky130_fd_sc_hd__mux2_1_2_X
*301 mux_top_track_4\.sky130_fd_sc_hd__mux2_1_3_X
*302 mux_top_track_4\.sky130_fd_sc_hd__mux2_1_4_X
*303 mux_top_track_4\.sky130_fd_sc_hd__mux2_1_5_X
*304 mux_top_track_6\.out
*305 mux_top_track_6\.sky130_fd_sc_hd__mux2_1_0_X
*306 mux_top_track_6\.sky130_fd_sc_hd__mux2_1_1_X
*307 mux_top_track_6\.sky130_fd_sc_hd__mux2_1_2_X
*308 mux_top_track_6\.sky130_fd_sc_hd__mux2_1_3_X
*309 mux_top_track_6\.sky130_fd_sc_hd__mux2_1_4_X
*310 mux_top_track_8\.out
*311 mux_top_track_8\.sky130_fd_sc_hd__mux2_1_0_X
*312 mux_top_track_8\.sky130_fd_sc_hd__mux2_1_1_X
*313 mux_top_track_8\.sky130_fd_sc_hd__mux2_1_2_X
*314 net1
*315 net10
*316 net100
*317 net101
*318 net102
*319 net103
*320 net104
*321 net105
*322 net106
*323 net107
*324 net108
*325 net109
*326 net11
*327 net110
*328 net111
*329 net112
*330 net113
*331 net114
*332 net115
*333 net116
*334 net117
*335 net118
*336 net119
*337 net12
*338 net120
*339 net121
*340 net122
*341 net123
*342 net124
*343 net125
*344 net126
*345 net127
*346 net128
*347 net129
*348 net13
*349 net130
*350 net131
*351 net132
*352 net133
*353 net134
*354 net14
*355 net15
*356 net16
*357 net17
*358 net18
*359 net19
*360 net2
*361 net20
*362 net21
*363 net22
*364 net23
*365 net24
*366 net25
*367 net26
*368 net27
*369 net28
*370 net29
*371 net3
*372 net30
*373 net31
*374 net32
*375 net33
*376 net34
*377 net35
*378 net36
*379 net37
*380 net38
*381 net39
*382 net4
*383 net40
*384 net41
*385 net42
*386 net43
*387 net44
*388 net45
*389 net46
*390 net47
*391 net48
*392 net49
*393 net5
*394 net50
*395 net51
*396 net52
*397 net53
*398 net54
*399 net55
*400 net56
*401 net57
*402 net58
*403 net59
*404 net6
*405 net60
*406 net61
*407 net62
*408 net63
*409 net64
*410 net65
*411 net66
*412 net67
*413 net68
*414 net69
*415 net7
*416 net70
*417 net71
*418 net72
*419 net73
*420 net74
*421 net75
*422 net76
*423 net77
*424 net78
*425 net79
*426 net8
*427 net80
*428 net81
*429 net82
*430 net83
*431 net84
*432 net85
*433 net86
*434 net87
*435 net88
*436 net89
*437 net9
*438 net90
*439 net91
*440 net92
*441 net93
*442 net94
*443 net95
*444 net96
*445 net97
*446 net98
*447 net99
*448 ANTENNA_input10_A
*449 ANTENNA_input11_A
*450 ANTENNA_input12_A
*451 ANTENNA_input13_A
*452 ANTENNA_input14_A
*453 ANTENNA_input15_A
*454 ANTENNA_input16_A
*455 ANTENNA_input17_A
*456 ANTENNA_input18_A
*457 ANTENNA_input19_A
*458 ANTENNA_input1_A
*459 ANTENNA_input20_A
*460 ANTENNA_input21_A
*461 ANTENNA_input22_A
*462 ANTENNA_input23_A
*463 ANTENNA_input24_A
*464 ANTENNA_input25_A
*465 ANTENNA_input26_A
*466 ANTENNA_input27_A
*467 ANTENNA_input28_A
*468 ANTENNA_input29_A
*469 ANTENNA_input2_A
*470 ANTENNA_input30_A
*471 ANTENNA_input31_A
*472 ANTENNA_input32_A
*473 ANTENNA_input33_A
*474 ANTENNA_input34_A
*475 ANTENNA_input35_A
*476 ANTENNA_input36_A
*477 ANTENNA_input37_A
*478 ANTENNA_input38_A
*479 ANTENNA_input39_A
*480 ANTENNA_input3_A
*481 ANTENNA_input40_A
*482 ANTENNA_input41_A
*483 ANTENNA_input42_A
*484 ANTENNA_input43_A
*485 ANTENNA_input44_A
*486 ANTENNA_input45_A
*487 ANTENNA_input46_A
*488 ANTENNA_input47_A
*489 ANTENNA_input48_A
*490 ANTENNA_input49_A
*491 ANTENNA_input4_A
*492 ANTENNA_input50_A
*493 ANTENNA_input51_A
*494 ANTENNA_input52_A
*495 ANTENNA_input53_A
*496 ANTENNA_input54_A
*497 ANTENNA_input55_A
*498 ANTENNA_input56_A
*499 ANTENNA_input57_A
*500 ANTENNA_input58_A
*501 ANTENNA_input59_A
*502 ANTENNA_input5_A
*503 ANTENNA_input6_A
*504 ANTENNA_input7_A
*505 ANTENNA_input8_A
*506 ANTENNA_input9_A
*507 ANTENNA_mem_left_track_1\.sky130_fd_sc_hd__dfxtp_1_0__CLK
*508 ANTENNA_mem_left_track_1\.sky130_fd_sc_hd__dfxtp_1_1__CLK
*509 ANTENNA_mem_left_track_1\.sky130_fd_sc_hd__dfxtp_1_1__D
*510 ANTENNA_mem_left_track_1\.sky130_fd_sc_hd__dfxtp_1_2__CLK
*511 ANTENNA_mem_left_track_1\.sky130_fd_sc_hd__dfxtp_1_2__D
*512 ANTENNA_mem_left_track_11\.sky130_fd_sc_hd__dfxtp_1_0__CLK
*513 ANTENNA_mem_left_track_11\.sky130_fd_sc_hd__dfxtp_1_1__CLK
*514 ANTENNA_mem_left_track_13\.sky130_fd_sc_hd__dfxtp_1_0__CLK
*515 ANTENNA_mem_left_track_13\.sky130_fd_sc_hd__dfxtp_1_1__CLK
*516 ANTENNA_mem_left_track_15\.sky130_fd_sc_hd__dfxtp_1_0__CLK
*517 ANTENNA_mem_left_track_15\.sky130_fd_sc_hd__dfxtp_1_1__CLK
*518 ANTENNA_mem_left_track_17\.sky130_fd_sc_hd__dfxtp_1_0__CLK
*519 ANTENNA_mem_left_track_17\.sky130_fd_sc_hd__dfxtp_1_1__CLK
*520 ANTENNA_mem_left_track_19\.sky130_fd_sc_hd__dfxtp_1_0__CLK
*521 ANTENNA_mem_left_track_19\.sky130_fd_sc_hd__dfxtp_1_1__CLK
*522 ANTENNA_mem_left_track_21\.sky130_fd_sc_hd__dfxtp_1_0__CLK
*523 ANTENNA_mem_left_track_21\.sky130_fd_sc_hd__dfxtp_1_1__CLK
*524 ANTENNA_mem_left_track_23\.sky130_fd_sc_hd__dfxtp_1_0__CLK
*525 ANTENNA_mem_left_track_23\.sky130_fd_sc_hd__dfxtp_1_1__CLK
*526 ANTENNA_mem_left_track_25\.sky130_fd_sc_hd__dfxtp_1_0__CLK
*527 ANTENNA_mem_left_track_25\.sky130_fd_sc_hd__dfxtp_1_1__CLK
*528 ANTENNA_mem_left_track_25\.sky130_fd_sc_hd__dfxtp_1_1__D
*529 ANTENNA_mem_left_track_27\.sky130_fd_sc_hd__dfxtp_1_0__CLK
*530 ANTENNA_mem_left_track_27\.sky130_fd_sc_hd__dfxtp_1_0__D
*531 ANTENNA_mem_left_track_27\.sky130_fd_sc_hd__dfxtp_1_1__CLK
*532 ANTENNA_mem_left_track_29\.sky130_fd_sc_hd__dfxtp_1_0__CLK
*533 ANTENNA_mem_left_track_29\.sky130_fd_sc_hd__dfxtp_1_1__CLK
*534 ANTENNA_mem_left_track_3\.sky130_fd_sc_hd__dfxtp_1_0__CLK
*535 ANTENNA_mem_left_track_3\.sky130_fd_sc_hd__dfxtp_1_0__D
*536 ANTENNA_mem_left_track_3\.sky130_fd_sc_hd__dfxtp_1_1__CLK
*537 ANTENNA_mem_left_track_3\.sky130_fd_sc_hd__dfxtp_1_2__CLK
*538 ANTENNA_mem_left_track_31\.sky130_fd_sc_hd__dfxtp_1_0__CLK
*539 ANTENNA_mem_left_track_31\.sky130_fd_sc_hd__dfxtp_1_0__D
*540 ANTENNA_mem_left_track_31\.sky130_fd_sc_hd__dfxtp_1_1__CLK
*541 ANTENNA_mem_left_track_31\.sky130_fd_sc_hd__dfxtp_1_1__D
*542 ANTENNA_mem_left_track_33\.sky130_fd_sc_hd__dfxtp_1_0__CLK
*543 ANTENNA_mem_left_track_33\.sky130_fd_sc_hd__dfxtp_1_0__D
*544 ANTENNA_mem_left_track_33\.sky130_fd_sc_hd__dfxtp_1_1__CLK
*545 ANTENNA_mem_left_track_33\.sky130_fd_sc_hd__dfxtp_1_1__D
*546 ANTENNA_mem_left_track_35\.sky130_fd_sc_hd__dfxtp_1_0__CLK
*547 ANTENNA_mem_left_track_35\.sky130_fd_sc_hd__dfxtp_1_0__D
*548 ANTENNA_mem_left_track_35\.sky130_fd_sc_hd__dfxtp_1_1__CLK
*549 ANTENNA_mem_left_track_35\.sky130_fd_sc_hd__dfxtp_1_1__D
*550 ANTENNA_mem_left_track_37\.sky130_fd_sc_hd__dfxtp_1_0__CLK
*551 ANTENNA_mem_left_track_37\.sky130_fd_sc_hd__dfxtp_1_0__D
*552 ANTENNA_mem_left_track_37\.sky130_fd_sc_hd__dfxtp_1_1__CLK
*553 ANTENNA_mem_left_track_37\.sky130_fd_sc_hd__dfxtp_1_1__D
*554 ANTENNA_mem_left_track_39\.sky130_fd_sc_hd__dfxtp_1_0__CLK
*555 ANTENNA_mem_left_track_39\.sky130_fd_sc_hd__dfxtp_1_0__D
*556 ANTENNA_mem_left_track_39\.sky130_fd_sc_hd__dfxtp_1_1__CLK
*557 ANTENNA_mem_left_track_39\.sky130_fd_sc_hd__dfxtp_1_1__D
*558 ANTENNA_mem_left_track_5\.sky130_fd_sc_hd__dfxtp_1_0__CLK
*559 ANTENNA_mem_left_track_5\.sky130_fd_sc_hd__dfxtp_1_1__CLK
*560 ANTENNA_mem_left_track_5\.sky130_fd_sc_hd__dfxtp_1_1__D
*561 ANTENNA_mem_left_track_5\.sky130_fd_sc_hd__dfxtp_1_2__CLK
*562 ANTENNA_mem_left_track_5\.sky130_fd_sc_hd__dfxtp_1_2__D
*563 ANTENNA_mem_left_track_7\.sky130_fd_sc_hd__dfxtp_1_0__CLK
*564 ANTENNA_mem_left_track_7\.sky130_fd_sc_hd__dfxtp_1_0__D
*565 ANTENNA_mem_left_track_7\.sky130_fd_sc_hd__dfxtp_1_1__CLK
*566 ANTENNA_mem_left_track_7\.sky130_fd_sc_hd__dfxtp_1_2__CLK
*567 ANTENNA_mem_left_track_7\.sky130_fd_sc_hd__dfxtp_1_2__D
*568 ANTENNA_mem_left_track_9\.sky130_fd_sc_hd__dfxtp_1_0__CLK
*569 ANTENNA_mem_left_track_9\.sky130_fd_sc_hd__dfxtp_1_0__D
*570 ANTENNA_mem_left_track_9\.sky130_fd_sc_hd__dfxtp_1_1__CLK
*571 ANTENNA_mem_top_track_0\.sky130_fd_sc_hd__dfxtp_1_0__CLK
*572 ANTENNA_mem_top_track_0\.sky130_fd_sc_hd__dfxtp_1_1__CLK
*573 ANTENNA_mem_top_track_0\.sky130_fd_sc_hd__dfxtp_1_2__CLK
*574 ANTENNA_mem_top_track_10\.sky130_fd_sc_hd__dfxtp_1_0__CLK
*575 ANTENNA_mem_top_track_10\.sky130_fd_sc_hd__dfxtp_1_1__CLK
*576 ANTENNA_mem_top_track_10\.sky130_fd_sc_hd__dfxtp_1_1__D
*577 ANTENNA_mem_top_track_12\.sky130_fd_sc_hd__dfxtp_1_0__CLK
*578 ANTENNA_mem_top_track_12\.sky130_fd_sc_hd__dfxtp_1_1__CLK
*579 ANTENNA_mem_top_track_14\.sky130_fd_sc_hd__dfxtp_1_0__CLK
*580 ANTENNA_mem_top_track_14\.sky130_fd_sc_hd__dfxtp_1_1__CLK
*581 ANTENNA_mem_top_track_14\.sky130_fd_sc_hd__dfxtp_1_1__D
*582 ANTENNA_mem_top_track_16\.sky130_fd_sc_hd__dfxtp_1_0__CLK
*583 ANTENNA_mem_top_track_16\.sky130_fd_sc_hd__dfxtp_1_1__CLK
*584 ANTENNA_mem_top_track_18\.sky130_fd_sc_hd__dfxtp_1_0__CLK
*585 ANTENNA_mem_top_track_18\.sky130_fd_sc_hd__dfxtp_1_1__CLK
*586 ANTENNA_mem_top_track_2\.sky130_fd_sc_hd__dfxtp_1_0__CLK
*587 ANTENNA_mem_top_track_2\.sky130_fd_sc_hd__dfxtp_1_1__CLK
*588 ANTENNA_mem_top_track_2\.sky130_fd_sc_hd__dfxtp_1_1__D
*589 ANTENNA_mem_top_track_2\.sky130_fd_sc_hd__dfxtp_1_2__CLK
*590 ANTENNA_mem_top_track_2\.sky130_fd_sc_hd__dfxtp_1_2__D
*591 ANTENNA_mem_top_track_20\.sky130_fd_sc_hd__dfxtp_1_0__CLK
*592 ANTENNA_mem_top_track_20\.sky130_fd_sc_hd__dfxtp_1_1__CLK
*593 ANTENNA_mem_top_track_22\.sky130_fd_sc_hd__dfxtp_1_0__CLK
*594 ANTENNA_mem_top_track_22\.sky130_fd_sc_hd__dfxtp_1_1__CLK
*595 ANTENNA_mem_top_track_24\.sky130_fd_sc_hd__dfxtp_1_0__CLK
*596 ANTENNA_mem_top_track_24\.sky130_fd_sc_hd__dfxtp_1_1__CLK
*597 ANTENNA_mem_top_track_26\.sky130_fd_sc_hd__dfxtp_1_0__CLK
*598 ANTENNA_mem_top_track_26\.sky130_fd_sc_hd__dfxtp_1_1__CLK
*599 ANTENNA_mem_top_track_4\.sky130_fd_sc_hd__dfxtp_1_0__CLK
*600 ANTENNA_mem_top_track_4\.sky130_fd_sc_hd__dfxtp_1_1__CLK
*601 ANTENNA_mem_top_track_4\.sky130_fd_sc_hd__dfxtp_1_1__D
*602 ANTENNA_mem_top_track_4\.sky130_fd_sc_hd__dfxtp_1_2__CLK
*603 ANTENNA_mem_top_track_4\.sky130_fd_sc_hd__dfxtp_1_2__D
*604 ANTENNA_mem_top_track_6\.sky130_fd_sc_hd__dfxtp_1_0__CLK
*605 ANTENNA_mem_top_track_6\.sky130_fd_sc_hd__dfxtp_1_0__D
*606 ANTENNA_mem_top_track_6\.sky130_fd_sc_hd__dfxtp_1_1__CLK
*607 ANTENNA_mem_top_track_6\.sky130_fd_sc_hd__dfxtp_1_1__D
*608 ANTENNA_mem_top_track_6\.sky130_fd_sc_hd__dfxtp_1_2__CLK
*609 ANTENNA_mem_top_track_6\.sky130_fd_sc_hd__dfxtp_1_2__D
*610 ANTENNA_mem_top_track_8\.sky130_fd_sc_hd__dfxtp_1_0__CLK
*611 ANTENNA_mem_top_track_8\.sky130_fd_sc_hd__dfxtp_1_1__CLK
*612 ANTENNA_mux_left_track_1\.mux_l1_in_0__S
*613 ANTENNA_mux_left_track_1\.mux_l1_in_1__A0
*614 ANTENNA_mux_left_track_1\.mux_l1_in_1__A1
*615 ANTENNA_mux_left_track_1\.mux_l1_in_1__S
*616 ANTENNA_mux_left_track_1\.mux_l1_in_2__A1
*617 ANTENNA_mux_left_track_1\.mux_l1_in_2__S
*618 ANTENNA_mux_left_track_1\.mux_l2_in_0__S
*619 ANTENNA_mux_left_track_1\.mux_l2_in_1__S
*620 ANTENNA_mux_left_track_1\.mux_l3_in_0__S
*621 ANTENNA_mux_left_track_11\.mux_l1_in_0__A0
*622 ANTENNA_mux_left_track_13\.mux_l1_in_0__A0
*623 ANTENNA_mux_left_track_15\.mux_l1_in_0__A0
*624 ANTENNA_mux_left_track_17\.mux_l1_in_0__A0
*625 ANTENNA_mux_left_track_19\.mux_l1_in_0__A0
*626 ANTENNA_mux_left_track_21\.mux_l1_in_0__A0
*627 ANTENNA_mux_left_track_25\.mux_l1_in_0__S
*628 ANTENNA_mux_left_track_25\.mux_l1_in_1__S
*629 ANTENNA_mux_left_track_25\.mux_l2_in_0__S
*630 ANTENNA_mux_left_track_27\.mux_l1_in_0__A0
*631 ANTENNA_mux_left_track_29\.mux_l1_in_0__A0
*632 ANTENNA_mux_left_track_29\.mux_l2_in_0__S
*633 ANTENNA_mux_left_track_3\.mux_l1_in_0__A0
*634 ANTENNA_mux_left_track_3\.mux_l1_in_1__A0
*635 ANTENNA_mux_left_track_3\.mux_l1_in_1__A1
*636 ANTENNA_mux_left_track_31\.mux_l1_in_0__A0
*637 ANTENNA_mux_left_track_31\.mux_l1_in_0__S
*638 ANTENNA_mux_left_track_31\.mux_l2_in_0__S
*639 ANTENNA_mux_left_track_33\.mux_l1_in_0__A0
*640 ANTENNA_mux_left_track_33\.mux_l1_in_0__S
*641 ANTENNA_mux_left_track_33\.mux_l2_in_0__S
*642 ANTENNA_mux_left_track_35\.mux_l1_in_0__A0
*643 ANTENNA_mux_left_track_35\.mux_l1_in_0__S
*644 ANTENNA_mux_left_track_35\.mux_l2_in_0__S
*645 ANTENNA_mux_left_track_37\.mux_l1_in_0__A0
*646 ANTENNA_mux_left_track_37\.mux_l1_in_0__S
*647 ANTENNA_mux_left_track_37\.mux_l2_in_0__S
*648 ANTENNA_mux_left_track_39\.mux_l1_in_0__S
*649 ANTENNA_mux_left_track_5\.mux_l1_in_0__S
*650 ANTENNA_mux_left_track_5\.mux_l1_in_1__A0
*651 ANTENNA_mux_left_track_5\.mux_l1_in_1__A1
*652 ANTENNA_mux_left_track_5\.mux_l1_in_1__S
*653 ANTENNA_mux_left_track_5\.mux_l1_in_2__A1
*654 ANTENNA_mux_left_track_5\.mux_l1_in_2__S
*655 ANTENNA_mux_left_track_5\.mux_l2_in_0__S
*656 ANTENNA_mux_left_track_5\.mux_l2_in_1__S
*657 ANTENNA_mux_left_track_5\.mux_l3_in_0__S
*658 ANTENNA_mux_left_track_7\.mux_l1_in_0__A0
*659 ANTENNA_mux_left_track_7\.mux_l1_in_1__A0
*660 ANTENNA_mux_left_track_7\.mux_l1_in_1__A1
*661 ANTENNA_mux_left_track_7\.mux_l2_in_0__S
*662 ANTENNA_mux_left_track_7\.mux_l2_in_1__S
*663 ANTENNA_mux_left_track_7\.mux_l3_in_0__S
*664 ANTENNA_mux_top_track_0\.mux_l1_in_2__A1
*665 ANTENNA_mux_top_track_10\.mux_l1_in_0__S
*666 ANTENNA_mux_top_track_14\.mux_l1_in_0__S
*667 ANTENNA_mux_top_track_2\.mux_l1_in_0__S
*668 ANTENNA_mux_top_track_2\.mux_l1_in_1__S
*669 ANTENNA_mux_top_track_2\.mux_l2_in_0__S
*670 ANTENNA_mux_top_track_2\.mux_l2_in_1__S
*671 ANTENNA_mux_top_track_24\.mux_l1_in_0__A0
*672 ANTENNA_mux_top_track_4\.mux_l1_in_0__S
*673 ANTENNA_mux_top_track_4\.mux_l1_in_1__S
*674 ANTENNA_mux_top_track_4\.mux_l1_in_2__A1
*675 ANTENNA_mux_top_track_4\.mux_l1_in_2__S
*676 ANTENNA_mux_top_track_4\.mux_l2_in_0__S
*677 ANTENNA_mux_top_track_4\.mux_l2_in_1__S
*678 ANTENNA_mux_top_track_4\.mux_l3_in_0__S
*679 ANTENNA_mux_top_track_6\.mux_l1_in_0__S
*680 ANTENNA_mux_top_track_6\.mux_l1_in_1__S
*681 ANTENNA_mux_top_track_6\.mux_l2_in_0__S
*682 ANTENNA_mux_top_track_6\.mux_l2_in_1__S
*683 ANTENNA_mux_top_track_8\.mux_l1_in_0__A0
*684 ANTENNA_output86_A
*685 ANTENNA_output87_A
*686 ANTENNA_output88_A
*687 ANTENNA_output89_A
*688 ANTENNA_output90_A
*689 ANTENNA_output91_A
*690 ANTENNA_prog_clk_0_FTB00_A
*691 FILLER_0_109
*692 FILLER_0_117
*693 FILLER_0_129
*694 FILLER_0_13
*695 FILLER_0_137
*696 FILLER_0_141
*697 FILLER_0_153
*698 FILLER_0_165
*699 FILLER_0_169
*700 FILLER_0_181
*701 FILLER_0_19
*702 FILLER_0_193
*703 FILLER_0_197
*704 FILLER_0_209
*705 FILLER_0_221
*706 FILLER_0_23
*707 FILLER_0_27
*708 FILLER_0_31
*709 FILLER_0_43
*710 FILLER_0_55
*711 FILLER_0_57
*712 FILLER_0_69
*713 FILLER_0_81
*714 FILLER_0_85
*715 FILLER_0_97
*716 FILLER_10_102
*717 FILLER_10_11
*718 FILLER_10_114
*719 FILLER_10_119
*720 FILLER_10_130
*721 FILLER_10_138
*722 FILLER_10_141
*723 FILLER_10_15
*724 FILLER_10_153
*725 FILLER_10_165
*726 FILLER_10_177
*727 FILLER_10_189
*728 FILLER_10_19
*729 FILLER_10_195
*730 FILLER_10_197
*731 FILLER_10_209
*732 FILLER_10_221
*733 FILLER_10_27
*734 FILLER_10_29
*735 FILLER_10_41
*736 FILLER_10_6
*737 FILLER_10_62
*738 FILLER_10_66
*739 FILLER_10_76
*740 FILLER_10_80
*741 FILLER_10_94
*742 FILLER_10_98
*743 FILLER_11_11
*744 FILLER_11_110
*745 FILLER_11_115
*746 FILLER_11_121
*747 FILLER_11_132
*748 FILLER_11_144
*749 FILLER_11_15
*750 FILLER_11_156
*751 FILLER_11_169
*752 FILLER_11_181
*753 FILLER_11_19
*754 FILLER_11_193
*755 FILLER_11_205
*756 FILLER_11_213
*757 FILLER_11_217
*758 FILLER_11_221
*759 FILLER_11_31
*760 FILLER_11_43
*761 FILLER_11_48
*762 FILLER_11_6
*763 FILLER_11_66
*764 FILLER_11_77
*765 FILLER_11_84
*766 FILLER_11_95
*767 FILLER_11_99
*768 FILLER_12_101
*769 FILLER_12_112
*770 FILLER_12_123
*771 FILLER_12_13
*772 FILLER_12_135
*773 FILLER_12_138
*774 FILLER_12_141
*775 FILLER_12_153
*776 FILLER_12_163
*777 FILLER_12_17
*778 FILLER_12_175
*779 FILLER_12_187
*780 FILLER_12_195
*781 FILLER_12_199
*782 FILLER_12_205
*783 FILLER_12_21
*784 FILLER_12_211
*785 FILLER_12_215
*786 FILLER_12_219
*787 FILLER_12_27
*788 FILLER_12_29
*789 FILLER_12_46
*790 FILLER_12_57
*791 FILLER_12_6
*792 FILLER_12_62
*793 FILLER_12_68
*794 FILLER_12_76
*795 FILLER_12_82
*796 FILLER_12_85
*797 FILLER_12_90
*798 FILLER_13_110
*799 FILLER_13_115
*800 FILLER_13_119
*801 FILLER_13_13
*802 FILLER_13_136
*803 FILLER_13_140
*804 FILLER_13_144
*805 FILLER_13_161
*806 FILLER_13_165
*807 FILLER_13_171
*808 FILLER_13_175
*809 FILLER_13_179
*810 FILLER_13_187
*811 FILLER_13_19
*812 FILLER_13_191
*813 FILLER_13_195
*814 FILLER_13_201
*815 FILLER_13_205
*816 FILLER_13_209
*817 FILLER_13_213
*818 FILLER_13_217
*819 FILLER_13_221
*820 FILLER_13_31
*821 FILLER_13_40
*822 FILLER_13_48
*823 FILLER_13_53
*824 FILLER_13_59
*825 FILLER_13_6
*826 FILLER_13_70
*827 FILLER_13_74
*828 FILLER_13_78
*829 FILLER_13_88
*830 FILLER_13_99
*831 FILLER_14_101
*832 FILLER_14_105
*833 FILLER_14_117
*834 FILLER_14_12
*835 FILLER_14_121
*836 FILLER_14_138
*837 FILLER_14_157
*838 FILLER_14_16
*839 FILLER_14_175
*840 FILLER_14_193
*841 FILLER_14_197
*842 FILLER_14_20
*843 FILLER_14_200
*844 FILLER_14_204
*845 FILLER_14_221
*846 FILLER_14_29
*847 FILLER_14_42
*848 FILLER_14_46
*849 FILLER_14_51
*850 FILLER_14_6
*851 FILLER_14_60
*852 FILLER_14_71
*853 FILLER_14_82
*854 FILLER_14_94
*855 FILLER_14_98
*856 FILLER_15_104
*857 FILLER_15_109
*858 FILLER_15_113
*859 FILLER_15_127
*860 FILLER_15_13
*861 FILLER_15_145
*862 FILLER_15_163
*863 FILLER_15_167
*864 FILLER_15_17
*865 FILLER_15_185
*866 FILLER_15_203
*867 FILLER_15_21
*868 FILLER_15_221
*869 FILLER_15_25
*870 FILLER_15_30
*871 FILLER_15_42
*872 FILLER_15_49
*873 FILLER_15_54
*874 FILLER_15_6
*875 FILLER_15_66
*876 FILLER_15_77
*877 FILLER_15_81
*878 FILLER_15_84
*879 FILLER_15_90
*880 FILLER_15_94
*881 FILLER_16_108
*882 FILLER_16_12
*883 FILLER_16_120
*884 FILLER_16_138
*885 FILLER_16_157
*886 FILLER_16_17
*887 FILLER_16_175
*888 FILLER_16_193
*889 FILLER_16_199
*890 FILLER_16_21
*891 FILLER_16_217
*892 FILLER_16_221
*893 FILLER_16_27
*894 FILLER_16_32
*895 FILLER_16_49
*896 FILLER_16_6
*897 FILLER_16_62
*898 FILLER_16_67
*899 FILLER_16_82
*900 FILLER_16_94
*901 FILLER_16_98
*902 FILLER_17_110
*903 FILLER_17_116
*904 FILLER_17_12
*905 FILLER_17_135
*906 FILLER_17_139
*907 FILLER_17_143
*908 FILLER_17_16
*909 FILLER_17_162
*910 FILLER_17_166
*911 FILLER_17_171
*912 FILLER_17_177
*913 FILLER_17_196
*914 FILLER_17_20
*915 FILLER_17_200
*916 FILLER_17_217
*917 FILLER_17_221
*918 FILLER_17_24
*919 FILLER_17_28
*920 FILLER_17_32
*921 FILLER_17_35
*922 FILLER_17_40
*923 FILLER_17_51
*924 FILLER_17_55
*925 FILLER_17_6
*926 FILLER_17_60
*927 FILLER_17_72
*928 FILLER_17_84
*929 FILLER_17_96
*930 FILLER_17_99
*931 FILLER_18_10
*932 FILLER_18_109
*933 FILLER_18_120
*934 FILLER_18_138
*935 FILLER_18_14
*936 FILLER_18_143
*937 FILLER_18_147
*938 FILLER_18_167
*939 FILLER_18_171
*940 FILLER_18_190
*941 FILLER_18_194
*942 FILLER_18_199
*943 FILLER_18_203
*944 FILLER_18_221
*945 FILLER_18_26
*946 FILLER_18_38
*947 FILLER_18_49
*948 FILLER_18_53
*949 FILLER_18_57
*950 FILLER_18_6
*951 FILLER_18_68
*952 FILLER_18_76
*953 FILLER_18_82
*954 FILLER_18_94
*955 FILLER_18_99
*956 FILLER_19_10
*957 FILLER_19_110
*958 FILLER_19_122
*959 FILLER_19_128
*960 FILLER_19_146
*961 FILLER_19_15
*962 FILLER_19_150
*963 FILLER_19_162
*964 FILLER_19_185
*965 FILLER_19_189
*966 FILLER_19_19
*967 FILLER_19_193
*968 FILLER_19_196
*969 FILLER_19_200
*970 FILLER_19_219
*971 FILLER_19_23
*972 FILLER_19_29
*973 FILLER_19_33
*974 FILLER_19_38
*975 FILLER_19_5
*976 FILLER_19_51
*977 FILLER_19_55
*978 FILLER_19_66
*979 FILLER_19_70
*980 FILLER_19_80
*981 FILLER_19_91
*982 FILLER_19_95
*983 FILLER_1_105
*984 FILLER_1_111
*985 FILLER_1_113
*986 FILLER_1_125
*987 FILLER_1_13
*988 FILLER_1_137
*989 FILLER_1_149
*990 FILLER_1_161
*991 FILLER_1_167
*992 FILLER_1_169
*993 FILLER_1_17
*994 FILLER_1_181
*995 FILLER_1_193
*996 FILLER_1_205
*997 FILLER_1_21
*998 FILLER_1_217
*999 FILLER_1_33
*1000 FILLER_1_45
*1001 FILLER_1_53
*1002 FILLER_1_57
*1003 FILLER_1_69
*1004 FILLER_1_7
*1005 FILLER_1_81
*1006 FILLER_1_93
*1007 FILLER_20_10