*SPEF "ieee 1481-1999"
*DESIGN "tie_array"
*DATE "11:11:11 Fri 11 11, 1111"
*VENDOR "OpenRCX"
*PROGRAM "Parallel Extraction"
*VERSION "1.0"
*DESIGN_FLOW "NAME_SCOPE LOCAL" "PIN_CAP NONE"
*DIVIDER /
*DELIMITER :
*BUS_DELIMITER []
*T_UNIT 1 NS
*C_UNIT 1 PF
*R_UNIT 1 OHM
*L_UNIT 1 HENRY

*NAME_MAP
*3 net1
*4 net2
*5 net3
*6 net4
*7 net5
*8 net6
*9 net7
*10 net8
*11 FILLER_0_100
*12 FILLER_0_11
*13 FILLER_0_16
*14 FILLER_0_3
*15 FILLER_0_32
*16 FILLER_0_44
*17 FILLER_0_48
*18 FILLER_0_57
*19 FILLER_0_64
*20 FILLER_0_72
*21 FILLER_0_76
*22 FILLER_0_88
*23 FILLER_10_15
*24 FILLER_10_27
*25 FILLER_10_29
*26 FILLER_10_3
*27 FILLER_10_41
*28 FILLER_10_53
*29 FILLER_10_65
*30 FILLER_10_77
*31 FILLER_10_83
*32 FILLER_10_85
*33 FILLER_10_97
*34 FILLER_11_101
*35 FILLER_11_15
*36 FILLER_11_27
*37 FILLER_11_3
*38 FILLER_11_39
*39 FILLER_11_51
*40 FILLER_11_55
*41 FILLER_11_57
*42 FILLER_11_69
*43 FILLER_11_81
*44 FILLER_11_93
*45 FILLER_12_15
*46 FILLER_12_27
*47 FILLER_12_29
*48 FILLER_12_3
*49 FILLER_12_41
*50 FILLER_12_53
*51 FILLER_12_65
*52 FILLER_12_77
*53 FILLER_12_83
*54 FILLER_12_85
*55 FILLER_12_97
*56 FILLER_13_101
*57 FILLER_13_15
*58 FILLER_13_27
*59 FILLER_13_3
*60 FILLER_13_39
*61 FILLER_13_51
*62 FILLER_13_55
*63 FILLER_13_57
*64 FILLER_13_69
*65 FILLER_13_81
*66 FILLER_13_93
*67 FILLER_14_15
*68 FILLER_14_27
*69 FILLER_14_29
*70 FILLER_14_3
*71 FILLER_14_41
*72 FILLER_14_53
*73 FILLER_14_65
*74 FILLER_14_77
*75 FILLER_14_83
*76 FILLER_14_85
*77 FILLER_14_97
*78 FILLER_15_101
*79 FILLER_15_15
*80 FILLER_15_27
*81 FILLER_15_3
*82 FILLER_15_39
*83 FILLER_15_51
*84 FILLER_15_55
*85 FILLER_15_57
*86 FILLER_15_69
*87 FILLER_15_81
*88 FILLER_15_93
*89 FILLER_16_15
*90 FILLER_16_27
*91 FILLER_16_29
*92 FILLER_16_3
*93 FILLER_16_41
*94 FILLER_16_53
*95 FILLER_16_57
*96 FILLER_16_69
*97 FILLER_16_81
*98 FILLER_16_85
*99 FILLER_16_97
*100 FILLER_1_18
*101 FILLER_1_30
*102 FILLER_1_42
*103 FILLER_1_54
*104 FILLER_1_57
*105 FILLER_1_6
*106 FILLER_1_69
*107 FILLER_1_81
*108 FILLER_1_89
*109 FILLER_1_95
*110 FILLER_2_15
*111 FILLER_2_27
*112 FILLER_2_29
*113 FILLER_2_3
*114 FILLER_2_41
*115 FILLER_2_53
*116 FILLER_2_65
*117 FILLER_2_77
*118 FILLER_2_83
*119 FILLER_2_85
*120 FILLER_2_97
*121 FILLER_3_101
*122 FILLER_3_15
*123 FILLER_3_27
*124 FILLER_3_3
*125 FILLER_3_39
*126 FILLER_3_51
*127 FILLER_3_55
*128 FILLER_3_57
*129 FILLER_3_69
*130 FILLER_3_81
*131 FILLER_3_93
*132 FILLER_4_15
*133 FILLER_4_27
*134 FILLER_4_29
*135 FILLER_4_3
*136 FILLER_4_41
*137 FILLER_4_53
*138 FILLER_4_65
*139 FILLER_4_77
*140 FILLER_4_83
*141 FILLER_4_85
*142 FILLER_4_97
*143 FILLER_5_101
*144 FILLER_5_15
*145 FILLER_5_27
*146 FILLER_5_3
*147 FILLER_5_39
*148 FILLER_5_51
*149 FILLER_5_55
*150 FILLER_5_57
*151 FILLER_5_69
*152 FILLER_5_81
*153 FILLER_5_93
*154 FILLER_6_15
*155 FILLER_6_27
*156 FILLER_6_29
*157 FILLER_6_3
*158 FILLER_6_41
*159 FILLER_6_53
*160 FILLER_6_65
*161 FILLER_6_77
*162 FILLER_6_83
*163 FILLER_6_85
*164 FILLER_6_97
*165 FILLER_7_101
*166 FILLER_7_15
*167 FILLER_7_27
*168 FILLER_7_3
*169 FILLER_7_39
*170 FILLER_7_51
*171 FILLER_7_55
*172 FILLER_7_57
*173 FILLER_7_69
*174 FILLER_7_81
*175 FILLER_7_93
*176 FILLER_8_15
*177 FILLER_8_27
*178 FILLER_8_29
*179 FILLER_8_3
*180 FILLER_8_41
*181 FILLER_8_53
*182 FILLER_8_65
*183 FILLER_8_77
*184 FILLER_8_83
*185 FILLER_8_85
*186 FILLER_8_97
*187 FILLER_9_101
*188 FILLER_9_15
*189 FILLER_9_27
*190 FILLER_9_3
*191 FILLER_9_39
*192 FILLER_9_51
*193 FILLER_9_55
*194 FILLER_9_57
*195 FILLER_9_69
*196 FILLER_9_81
*197 FILLER_9_93
*198 PHY_0
*199 PHY_1
*200 PHY_10
*201 PHY_11
*202 PHY_12
*203 PHY_13
*204 PHY_14
*205 PHY_15
*206 PHY_16
*207 PHY_17
*208 PHY_18
*209 PHY_19
*210 PHY_2
*211 PHY_20
*212 PHY_21
*213 PHY_22
*214 PHY_23
*215 PHY_24
*216 PHY_25
*217 PHY_26
*218 PHY_27
*219 PHY_28
*220 PHY_29
*221 PHY_3
*222 PHY_30
*223 PHY_31
*224 PHY_32
*225 PHY_33
*226 PHY_4
*227 PHY_5
*228 PHY_6
*229 PHY_7
*230 PHY_8
*231 PHY_9
*232 TAP_34
*233 TAP_35
*234 TAP_36
*235 TAP_37
*236 TAP_38
*237 TAP_39
*238 TAP_40
*239 TAP_41
*240 TAP_42
*241 TAP_43
*242 TAP_44
*243 TAP_45
*244 TAP_46
*245 TAP_47
*246 TAP_48
*247 TAP_49
*248 TAP_50
*249 TAP_51
*250 TAP_52
*251 TAP_53
*252 TAP_54
*253 TAP_55
*254 TAP_56
*255 TAP_57
*256 TAP_58
*257 TAP_59
*258 TAP_60
*259 TAP_61
*260 tie_array_1
*261 tie_array_2
*262 tie_array_3
*263 tie_array_4
*264 tie_array_5
*265 tie_array_6
*266 tie_array_7
*267 tie_array_8

*PORTS
x[0] O
x[1] O
x[2] O
x[3] O
x[4] O
x[5] O
x[6] O
x[7] O

*D_NET *3 0.00110863
*CONN
*P x[0] O
*I *260:LO O *D sky130_fd_sc_hd__conb_1
*CAP
1 x[0] 0.000554313
2 *260:LO 0.000554313
*RES
1 *260:LO x[0] 26.1214 
*END

*D_NET *4 0.000711785
*CONN
*P x[1] O
*I *261:LO O *D sky130_fd_sc_hd__conb_1
*CAP
1 x[1] 0.000355893
2 *261:LO 0.000355893
*RES
1 *261:LO x[1] 21.8357 
*END

*D_NET *5 0.000713224
*CONN
*P x[2] O
*I *262:LO O *D sky130_fd_sc_hd__conb_1
*CAP
1 x[2] 0.000356612
2 *262:LO 0.000356612
*RES
1 *262:LO x[2] 21.9607 
*END

*D_NET *6 0.000712021
*CONN
*P x[3] O
*I *263:LO O *D sky130_fd_sc_hd__conb_1
*CAP
1 x[3] 0.000356011
2 *263:LO 0.000356011
*RES
1 *263:LO x[3] 21.8357 
*END

*D_NET *7 0.000712021
*CONN
*P x[4] O
*I *264:LO O *D sky130_fd_sc_hd__conb_1
*CAP
1 x[4] 0.000356011
2 *264:LO 0.000356011
*RES
1 *264:LO x[4] 21.8357 
*END

*D_NET *8 0.00102689
*CONN
*P x[5] O
*I *265:LO O *D sky130_fd_sc_hd__conb_1
*CAP
1 x[5] 0.000513446
2 *265:LO 0.000513446
3 x[5] x[7] 0
*RES
1 *265:LO x[5] 25.1214 
*END

*D_NET *9 0.00100032
*CONN
*P x[6] O
*I *266:LO O *D sky130_fd_sc_hd__conb_1
*CAP
1 x[6] 0.000500158
2 *266:LO 0.000500158
*RES
1 *266:LO x[6] 25.1393 
*END

*D_NET *10 0.00201856
*CONN
*P x[7] O
*I *267:LO O *D sky130_fd_sc_hd__conb_1
*CAP
1 x[7] 0.00100928
2 *267:LO 0.00100928
3 x[5] x[7] 0
*RES
1 *267:LO x[7] 35.5321 
*END
