*SPEF "ieee 1481-1999"
*DESIGN "tie_array"
*DATE "11:11:11 Fri 11 11, 1111"
*VENDOR "OpenRCX"
*PROGRAM "Parallel Extraction"
*VERSION "1.0"
*DESIGN_FLOW "NAME_SCOPE LOCAL" "PIN_CAP NONE"
*DIVIDER /
*DELIMITER :
*BUS_DELIMITER []
*T_UNIT 1 NS
*C_UNIT 1 PF
*R_UNIT 1 OHM
*L_UNIT 1 HENRY

*NAME_MAP
*3 x[0]
*4 x[1]
*5 x[2]
*6 x[3]
*7 x[4]
*8 x[5]
*9 x[6]
*10 x[7]
*11 FILLER_0_15
*12 FILLER_0_27
*13 FILLER_0_29
*14 FILLER_0_3
*15 FILLER_0_41
*16 FILLER_0_53
*17 FILLER_0_57
*18 FILLER_0_69
*19 FILLER_0_81
*20 FILLER_0_85
*21 FILLER_0_97
*22 FILLER_10_15
*23 FILLER_10_27
*24 FILLER_10_29
*25 FILLER_10_3
*26 FILLER_10_41
*27 FILLER_10_53
*28 FILLER_10_65
*29 FILLER_10_77
*30 FILLER_10_83
*31 FILLER_10_85
*32 FILLER_10_97
*33 FILLER_11_101
*34 FILLER_11_15
*35 FILLER_11_27
*36 FILLER_11_3
*37 FILLER_11_39
*38 FILLER_11_51
*39 FILLER_11_55
*40 FILLER_11_57
*41 FILLER_11_69
*42 FILLER_11_81
*43 FILLER_11_93
*44 FILLER_12_15
*45 FILLER_12_27
*46 FILLER_12_29
*47 FILLER_12_3
*48 FILLER_12_41
*49 FILLER_12_53
*50 FILLER_12_65
*51 FILLER_12_77
*52 FILLER_12_83
*53 FILLER_12_85
*54 FILLER_12_97
*55 FILLER_13_101
*56 FILLER_13_15
*57 FILLER_13_27
*58 FILLER_13_3
*59 FILLER_13_39
*60 FILLER_13_51
*61 FILLER_13_55
*62 FILLER_13_57
*63 FILLER_13_69
*64 FILLER_13_81
*65 FILLER_13_93
*66 FILLER_14_15
*67 FILLER_14_27
*68 FILLER_14_29
*69 FILLER_14_3
*70 FILLER_14_41
*71 FILLER_14_53
*72 FILLER_14_65
*73 FILLER_14_77
*74 FILLER_14_83
*75 FILLER_14_85
*76 FILLER_14_97
*77 FILLER_15_101
*78 FILLER_15_15
*79 FILLER_15_27
*80 FILLER_15_3
*81 FILLER_15_39
*82 FILLER_15_51
*83 FILLER_15_55
*84 FILLER_15_57
*85 FILLER_15_69
*86 FILLER_15_81
*87 FILLER_15_93
*88 FILLER_16_15
*89 FILLER_16_27
*90 FILLER_16_29
*91 FILLER_16_3
*92 FILLER_16_41
*93 FILLER_16_53
*94 FILLER_16_57
*95 FILLER_16_69
*96 FILLER_16_81
*97 FILLER_16_85
*98 FILLER_16_97
*99 FILLER_1_101
*100 FILLER_1_15
*101 FILLER_1_27
*102 FILLER_1_3
*103 FILLER_1_39
*104 FILLER_1_51
*105 FILLER_1_55
*106 FILLER_1_57
*107 FILLER_1_69
*108 FILLER_1_81
*109 FILLER_1_93
*110 FILLER_2_101
*111 FILLER_2_15
*112 FILLER_2_20
*113 FILLER_2_29
*114 FILLER_2_3
*115 FILLER_2_41
*116 FILLER_2_53
*117 FILLER_2_65
*118 FILLER_2_77
*119 FILLER_2_83
*120 FILLER_2_85
*121 FILLER_2_89
*122 FILLER_3_101
*123 FILLER_3_18
*124 FILLER_3_29
*125 FILLER_3_3
*126 FILLER_3_41
*127 FILLER_3_53
*128 FILLER_3_57
*129 FILLER_3_69
*130 FILLER_3_75
*131 FILLER_3_83
*132 FILLER_3_89
*133 FILLER_4_101
*134 FILLER_4_15
*135 FILLER_4_20
*136 FILLER_4_29
*137 FILLER_4_3
*138 FILLER_4_41
*139 FILLER_4_53
*140 FILLER_4_65
*141 FILLER_4_77
*142 FILLER_4_83
*143 FILLER_4_85
*144 FILLER_4_89
*145 FILLER_5_101
*146 FILLER_5_15
*147 FILLER_5_27
*148 FILLER_5_3
*149 FILLER_5_39
*150 FILLER_5_51
*151 FILLER_5_55
*152 FILLER_5_57
*153 FILLER_5_69
*154 FILLER_5_81
*155 FILLER_5_93
*156 FILLER_6_15
*157 FILLER_6_27
*158 FILLER_6_29
*159 FILLER_6_3
*160 FILLER_6_41
*161 FILLER_6_53
*162 FILLER_6_65
*163 FILLER_6_77
*164 FILLER_6_83
*165 FILLER_6_85
*166 FILLER_6_97
*167 FILLER_7_101
*168 FILLER_7_15
*169 FILLER_7_27
*170 FILLER_7_3
*171 FILLER_7_39
*172 FILLER_7_51
*173 FILLER_7_55
*174 FILLER_7_57
*175 FILLER_7_69
*176 FILLER_7_81
*177 FILLER_7_93
*178 FILLER_8_15
*179 FILLER_8_27
*180 FILLER_8_29
*181 FILLER_8_3
*182 FILLER_8_41
*183 FILLER_8_53
*184 FILLER_8_65
*185 FILLER_8_77
*186 FILLER_8_83
*187 FILLER_8_85
*188 FILLER_8_97
*189 FILLER_9_101
*190 FILLER_9_15
*191 FILLER_9_27
*192 FILLER_9_3
*193 FILLER_9_39
*194 FILLER_9_51
*195 FILLER_9_55
*196 FILLER_9_57
*197 FILLER_9_69
*198 FILLER_9_81
*199 FILLER_9_93
*200 PHY_0
*201 PHY_1
*202 PHY_10
*203 PHY_11
*204 PHY_12
*205 PHY_13
*206 PHY_14
*207 PHY_15
*208 PHY_16
*209 PHY_17
*210 PHY_18
*211 PHY_19
*212 PHY_2
*213 PHY_20
*214 PHY_21
*215 PHY_22
*216 PHY_23
*217 PHY_24
*218 PHY_25
*219 PHY_26
*220 PHY_27
*221 PHY_28
*222 PHY_29
*223 PHY_3
*224 PHY_30
*225 PHY_31
*226 PHY_32
*227 PHY_33
*228 PHY_4
*229 PHY_5
*230 PHY_6
*231 PHY_7
*232 PHY_8
*233 PHY_9
*234 TAP_34
*235 TAP_35
*236 TAP_36
*237 TAP_37
*238 TAP_38
*239 TAP_39
*240 TAP_40
*241 TAP_41
*242 TAP_42
*243 TAP_43
*244 TAP_44
*245 TAP_45
*246 TAP_46
*247 TAP_47
*248 TAP_48
*249 TAP_49
*250 TAP_50
*251 TAP_51
*252 TAP_52
*253 TAP_53
*254 TAP_54
*255 TAP_55
*256 TAP_56
*257 TAP_57
*258 TAP_58
*259 TAP_59
*260 TAP_60
*261 TAP_61
*262 conb_1\[0\]
*263 conb_1\[1\]
*264 conb_1\[2\]
*265 conb_1\[3\]
*266 conb_1\[4\]
*267 conb_1\[5\]
*268 conb_1\[6\]
*269 conb_1\[7\]

*PORTS
x[0] O
x[1] O
x[2] O
x[3] O
x[4] O
x[5] O
x[6] O
x[7] O

*D_NET *3 0.0020088
*CONN
*P x[0] O
*I *262:LO O *D sky130_fd_sc_hd__conb_1
*CAP
1 x[0] 0.0010044
2 *262:LO 0.0010044
*RES
1 *262:LO x[0] 35.9071 
*END

*D_NET *4 0.00137101
*CONN
*P x[1] O
*I *263:LO O *D sky130_fd_sc_hd__conb_1
*CAP
1 x[1] 0.000685503
2 *263:LO 0.000685503
*RES
1 *263:LO x[1] 30.05 
*END

*D_NET *5 0.00197382
*CONN
*P x[2] O
*I *264:LO O *D sky130_fd_sc_hd__conb_1
*CAP
1 x[2] 0.000986912
2 *264:LO 0.000986912
*RES
1 *264:LO x[2] 35.9071 
*END

*D_NET *6 0.00189073
*CONN
*P x[3] O
*I *265:LO O *D sky130_fd_sc_hd__conb_1
*CAP
1 x[3] 0.000945363
2 *265:LO 0.000945363
*RES
1 *265:LO x[3] 34.675 
*END

*D_NET *7 0.00173329
*CONN
*P x[4] O
*I *266:LO O *D sky130_fd_sc_hd__conb_1
*CAP
1 x[4] 0.000866645
2 *266:LO 0.000866645
*RES
1 *266:LO x[4] 33.0321 
*END

*D_NET *8 0.00165457
*CONN
*P x[5] O
*I *267:LO O *D sky130_fd_sc_hd__conb_1
*CAP
1 x[5] 0.000827287
2 *267:LO 0.000827287
*RES
1 *267:LO x[5] 32.2107 
*END

*D_NET *9 0.00126758
*CONN
*P x[6] O
*I *268:LO O *D sky130_fd_sc_hd__conb_1
*CAP
1 x[6] 0.000633789
2 *268:LO 0.000633789
*RES
1 *268:LO x[6] 28.175 
*END

*D_NET *10 0.00231558
*CONN
*P x[7] O
*I *269:LO O *D sky130_fd_sc_hd__conb_1
*CAP
1 x[7] 0.00115779
2 *269:LO 0.00115779
*RES
1 *269:LO x[7] 39.3536 
*END
