*SPEF "ieee 1481-1999"
*DESIGN "top_left_tile"
*DATE "11:11:11 Fri 11 11, 1111"
*VENDOR "OpenRCX"
*PROGRAM "Parallel Extraction"
*VERSION "1.0"
*DESIGN_FLOW "NAME_SCOPE LOCAL" "PIN_CAP NONE"
*DIVIDER /
*DELIMITER :
*BUS_DELIMITER []
*T_UNIT 1 NS
*C_UNIT 1 PF
*R_UNIT 1 OHM
*L_UNIT 1 HENRY

*NAME_MAP
*3 ccff_head
*4 ccff_head_0
*5 ccff_tail
*6 ccff_tail_0
*7 chanx_right_in[0]
*8 chanx_right_in[10]
*9 chanx_right_in[11]
*10 chanx_right_in[12]
*11 chanx_right_in[13]
*12 chanx_right_in[14]
*13 chanx_right_in[15]
*14 chanx_right_in[16]
*15 chanx_right_in[17]
*16 chanx_right_in[18]
*17 chanx_right_in[19]
*18 chanx_right_in[1]
*19 chanx_right_in[20]
*20 chanx_right_in[21]
*21 chanx_right_in[22]
*22 chanx_right_in[23]
*23 chanx_right_in[24]
*24 chanx_right_in[25]
*25 chanx_right_in[26]
*26 chanx_right_in[27]
*27 chanx_right_in[28]
*28 chanx_right_in[29]
*29 chanx_right_in[2]
*30 chanx_right_in[3]
*31 chanx_right_in[4]
*32 chanx_right_in[5]
*33 chanx_right_in[6]
*34 chanx_right_in[7]
*35 chanx_right_in[8]
*36 chanx_right_in[9]
*37 chanx_right_out[0]
*38 chanx_right_out[10]
*39 chanx_right_out[11]
*40 chanx_right_out[12]
*41 chanx_right_out[13]
*42 chanx_right_out[14]
*43 chanx_right_out[15]
*44 chanx_right_out[16]
*45 chanx_right_out[17]
*46 chanx_right_out[18]
*47 chanx_right_out[19]
*48 chanx_right_out[1]
*49 chanx_right_out[20]
*50 chanx_right_out[21]
*51 chanx_right_out[22]
*52 chanx_right_out[23]
*53 chanx_right_out[24]
*54 chanx_right_out[25]
*55 chanx_right_out[26]
*56 chanx_right_out[27]
*57 chanx_right_out[28]
*58 chanx_right_out[29]
*59 chanx_right_out[2]
*60 chanx_right_out[3]
*61 chanx_right_out[4]
*62 chanx_right_out[5]
*63 chanx_right_out[6]
*64 chanx_right_out[7]
*65 chanx_right_out[8]
*66 chanx_right_out[9]
*67 chany_bottom_in_0[0]
*68 chany_bottom_in_0[10]
*69 chany_bottom_in_0[11]
*70 chany_bottom_in_0[12]
*71 chany_bottom_in_0[13]
*72 chany_bottom_in_0[14]
*73 chany_bottom_in_0[15]
*74 chany_bottom_in_0[16]
*75 chany_bottom_in_0[17]
*76 chany_bottom_in_0[18]
*77 chany_bottom_in_0[19]
*78 chany_bottom_in_0[1]
*79 chany_bottom_in_0[20]
*80 chany_bottom_in_0[21]
*81 chany_bottom_in_0[22]
*82 chany_bottom_in_0[23]
*83 chany_bottom_in_0[24]
*84 chany_bottom_in_0[25]
*85 chany_bottom_in_0[26]
*86 chany_bottom_in_0[27]
*87 chany_bottom_in_0[28]
*88 chany_bottom_in_0[29]
*89 chany_bottom_in_0[2]
*90 chany_bottom_in_0[3]
*91 chany_bottom_in_0[4]
*92 chany_bottom_in_0[5]
*93 chany_bottom_in_0[6]
*94 chany_bottom_in_0[7]
*95 chany_bottom_in_0[8]
*96 chany_bottom_in_0[9]
*97 chany_bottom_out_0[0]
*98 chany_bottom_out_0[10]
*99 chany_bottom_out_0[11]
*100 chany_bottom_out_0[12]
*101 chany_bottom_out_0[13]
*102 chany_bottom_out_0[14]
*103 chany_bottom_out_0[15]
*104 chany_bottom_out_0[16]
*105 chany_bottom_out_0[17]
*106 chany_bottom_out_0[18]
*107 chany_bottom_out_0[19]
*108 chany_bottom_out_0[1]
*109 chany_bottom_out_0[20]
*110 chany_bottom_out_0[21]
*111 chany_bottom_out_0[22]
*112 chany_bottom_out_0[23]
*113 chany_bottom_out_0[24]
*114 chany_bottom_out_0[25]
*115 chany_bottom_out_0[26]
*116 chany_bottom_out_0[27]
*117 chany_bottom_out_0[28]
*118 chany_bottom_out_0[29]
*119 chany_bottom_out_0[2]
*120 chany_bottom_out_0[3]
*121 chany_bottom_out_0[4]
*122 chany_bottom_out_0[5]
*123 chany_bottom_out_0[6]
*124 chany_bottom_out_0[7]
*125 chany_bottom_out_0[8]
*126 chany_bottom_out_0[9]
*127 gfpga_pad_io_soc_dir[0]
*128 gfpga_pad_io_soc_dir[1]
*129 gfpga_pad_io_soc_dir[2]
*130 gfpga_pad_io_soc_dir[3]
*131 gfpga_pad_io_soc_in[0]
*132 gfpga_pad_io_soc_in[1]
*133 gfpga_pad_io_soc_in[2]
*134 gfpga_pad_io_soc_in[3]
*135 gfpga_pad_io_soc_out[0]
*136 gfpga_pad_io_soc_out[1]
*137 gfpga_pad_io_soc_out[2]
*138 gfpga_pad_io_soc_out[3]
*139 isol_n
*140 prog_clk
*141 prog_reset
*142 reset
*143 right_bottom_grid_top_width_0_height_0_subtile_0__pin_O_0_
*144 right_bottom_grid_top_width_0_height_0_subtile_0__pin_O_1_
*145 right_bottom_grid_top_width_0_height_0_subtile_0__pin_O_2_
*146 right_bottom_grid_top_width_0_height_0_subtile_0__pin_O_3_
*147 right_bottom_grid_top_width_0_height_0_subtile_0__pin_O_4_
*148 right_bottom_grid_top_width_0_height_0_subtile_0__pin_O_5_
*149 right_bottom_grid_top_width_0_height_0_subtile_0__pin_O_6_
*150 right_bottom_grid_top_width_0_height_0_subtile_0__pin_O_7_
*151 right_top_grid_bottom_width_0_height_0_subtile_0__pin_inpad_0_
*152 right_top_grid_bottom_width_0_height_0_subtile_1__pin_inpad_0_
*153 right_top_grid_bottom_width_0_height_0_subtile_2__pin_inpad_0_
*154 right_top_grid_bottom_width_0_height_0_subtile_3__pin_inpad_0_
*155 right_width_0_height_0_subtile_0__pin_inpad_0_
*156 right_width_0_height_0_subtile_1__pin_inpad_0_
*157 right_width_0_height_0_subtile_2__pin_inpad_0_
*158 right_width_0_height_0_subtile_3__pin_inpad_0_
*159 test_enable
*160 cby_0__8_\.cby_0__1_\.ccff_tail
*161 cby_0__8_\.cby_0__1_\.left_grid_right_width_0_height_0_subtile_0__pin_outpad_0_
*162 cby_0__8_\.cby_0__1_\.left_grid_right_width_0_height_0_subtile_1__pin_outpad_0_
*163 cby_0__8_\.cby_0__1_\.left_grid_right_width_0_height_0_subtile_2__pin_outpad_0_
*164 cby_0__8_\.cby_0__1_\.left_grid_right_width_0_height_0_subtile_3__pin_outpad_0_
*165 cby_0__8_\.cby_0__1_\.mem_right_ipin_0\.ccff_tail
*166 cby_0__8_\.cby_0__1_\.mem_right_ipin_0\.mem_out\[0\]
*167 cby_0__8_\.cby_0__1_\.mem_right_ipin_0\.mem_out\[1\]
*168 cby_0__8_\.cby_0__1_\.mem_right_ipin_0\.mem_out\[2\]
*169 cby_0__8_\.cby_0__1_\.mem_right_ipin_1\.ccff_tail
*170 cby_0__8_\.cby_0__1_\.mem_right_ipin_1\.mem_out\[0\]
*171 cby_0__8_\.cby_0__1_\.mem_right_ipin_1\.mem_out\[1\]
*172 cby_0__8_\.cby_0__1_\.mem_right_ipin_1\.mem_out\[2\]
*173 cby_0__8_\.cby_0__1_\.mem_right_ipin_2\.ccff_tail
*174 cby_0__8_\.cby_0__1_\.mem_right_ipin_2\.mem_out\[0\]
*175 cby_0__8_\.cby_0__1_\.mem_right_ipin_2\.mem_out\[1\]
*176 cby_0__8_\.cby_0__1_\.mem_right_ipin_2\.mem_out\[2\]
*177 cby_0__8_\.cby_0__1_\.mem_right_ipin_3\.mem_out\[0\]
*178 cby_0__8_\.cby_0__1_\.mem_right_ipin_3\.mem_out\[1\]
*179 cby_0__8_\.cby_0__1_\.mem_right_ipin_3\.mem_out\[2\]
*180 cby_0__8_\.cby_0__1_\.mux_right_ipin_0\.sky130_fd_sc_hd__mux2_1_0_X
*181 cby_0__8_\.cby_0__1_\.mux_right_ipin_0\.sky130_fd_sc_hd__mux2_1_10_X
*182 cby_0__8_\.cby_0__1_\.mux_right_ipin_0\.sky130_fd_sc_hd__mux2_1_11_X
*183 cby_0__8_\.cby_0__1_\.mux_right_ipin_0\.sky130_fd_sc_hd__mux2_1_1_X
*184 cby_0__8_\.cby_0__1_\.mux_right_ipin_0\.sky130_fd_sc_hd__mux2_1_2_X
*185 cby_0__8_\.cby_0__1_\.mux_right_ipin_0\.sky130_fd_sc_hd__mux2_1_3_X
*186 cby_0__8_\.cby_0__1_\.mux_right_ipin_0\.sky130_fd_sc_hd__mux2_1_4_X
*187 cby_0__8_\.cby_0__1_\.mux_right_ipin_0\.sky130_fd_sc_hd__mux2_1_5_X
*188 cby_0__8_\.cby_0__1_\.mux_right_ipin_0\.sky130_fd_sc_hd__mux2_1_6_X
*189 cby_0__8_\.cby_0__1_\.mux_right_ipin_0\.sky130_fd_sc_hd__mux2_1_7_X
*190 cby_0__8_\.cby_0__1_\.mux_right_ipin_0\.sky130_fd_sc_hd__mux2_1_8_X
*191 cby_0__8_\.cby_0__1_\.mux_right_ipin_0\.sky130_fd_sc_hd__mux2_1_9_X
*192 cby_0__8_\.cby_0__1_\.mux_right_ipin_1\.sky130_fd_sc_hd__mux2_1_0_X
*193 cby_0__8_\.cby_0__1_\.mux_right_ipin_1\.sky130_fd_sc_hd__mux2_1_10_X
*194 cby_0__8_\.cby_0__1_\.mux_right_ipin_1\.sky130_fd_sc_hd__mux2_1_11_X
*195 cby_0__8_\.cby_0__1_\.mux_right_ipin_1\.sky130_fd_sc_hd__mux2_1_1_X
*196 cby_0__8_\.cby_0__1_\.mux_right_ipin_1\.sky130_fd_sc_hd__mux2_1_2_X
*197 cby_0__8_\.cby_0__1_\.mux_right_ipin_1\.sky130_fd_sc_hd__mux2_1_3_X
*198 cby_0__8_\.cby_0__1_\.mux_right_ipin_1\.sky130_fd_sc_hd__mux2_1_4_X
*199 cby_0__8_\.cby_0__1_\.mux_right_ipin_1\.sky130_fd_sc_hd__mux2_1_5_X
*200 cby_0__8_\.cby_0__1_\.mux_right_ipin_1\.sky130_fd_sc_hd__mux2_1_6_X
*201 cby_0__8_\.cby_0__1_\.mux_right_ipin_1\.sky130_fd_sc_hd__mux2_1_7_X
*202 cby_0__8_\.cby_0__1_\.mux_right_ipin_1\.sky130_fd_sc_hd__mux2_1_8_X
*203 cby_0__8_\.cby_0__1_\.mux_right_ipin_1\.sky130_fd_sc_hd__mux2_1_9_X
*204 cby_0__8_\.cby_0__1_\.mux_right_ipin_2\.sky130_fd_sc_hd__mux2_1_0_X
*205 cby_0__8_\.cby_0__1_\.mux_right_ipin_2\.sky130_fd_sc_hd__mux2_1_10_X
*206 cby_0__8_\.cby_0__1_\.mux_right_ipin_2\.sky130_fd_sc_hd__mux2_1_11_X
*207 cby_0__8_\.cby_0__1_\.mux_right_ipin_2\.sky130_fd_sc_hd__mux2_1_1_X
*208 cby_0__8_\.cby_0__1_\.mux_right_ipin_2\.sky130_fd_sc_hd__mux2_1_2_X
*209 cby_0__8_\.cby_0__1_\.mux_right_ipin_2\.sky130_fd_sc_hd__mux2_1_3_X
*210 cby_0__8_\.cby_0__1_\.mux_right_ipin_2\.sky130_fd_sc_hd__mux2_1_4_X
*211 cby_0__8_\.cby_0__1_\.mux_right_ipin_2\.sky130_fd_sc_hd__mux2_1_5_X
*212 cby_0__8_\.cby_0__1_\.mux_right_ipin_2\.sky130_fd_sc_hd__mux2_1_6_X
*213 cby_0__8_\.cby_0__1_\.mux_right_ipin_2\.sky130_fd_sc_hd__mux2_1_7_X
*214 cby_0__8_\.cby_0__1_\.mux_right_ipin_2\.sky130_fd_sc_hd__mux2_1_8_X
*215 cby_0__8_\.cby_0__1_\.mux_right_ipin_2\.sky130_fd_sc_hd__mux2_1_9_X
*216 cby_0__8_\.cby_0__1_\.mux_right_ipin_3\.sky130_fd_sc_hd__mux2_1_0_X
*217 cby_0__8_\.cby_0__1_\.mux_right_ipin_3\.sky130_fd_sc_hd__mux2_1_10_X
*218 cby_0__8_\.cby_0__1_\.mux_right_ipin_3\.sky130_fd_sc_hd__mux2_1_11_X
*219 cby_0__8_\.cby_0__1_\.mux_right_ipin_3\.sky130_fd_sc_hd__mux2_1_1_X
*220 cby_0__8_\.cby_0__1_\.mux_right_ipin_3\.sky130_fd_sc_hd__mux2_1_2_X
*221 cby_0__8_\.cby_0__1_\.mux_right_ipin_3\.sky130_fd_sc_hd__mux2_1_3_X
*222 cby_0__8_\.cby_0__1_\.mux_right_ipin_3\.sky130_fd_sc_hd__mux2_1_4_X
*223 cby_0__8_\.cby_0__1_\.mux_right_ipin_3\.sky130_fd_sc_hd__mux2_1_5_X
*224 cby_0__8_\.cby_0__1_\.mux_right_ipin_3\.sky130_fd_sc_hd__mux2_1_6_X
*225 cby_0__8_\.cby_0__1_\.mux_right_ipin_3\.sky130_fd_sc_hd__mux2_1_7_X
*226 cby_0__8_\.cby_0__1_\.mux_right_ipin_3\.sky130_fd_sc_hd__mux2_1_8_X
*227 cby_0__8_\.cby_0__1_\.mux_right_ipin_3\.sky130_fd_sc_hd__mux2_1_9_X
*228 cby_0__8_\.grid_io_left_left_0__1_\.logical_tile_io_mode_io__0\.ccff_tail
*229 cby_0__8_\.grid_io_left_left_0__1_\.logical_tile_io_mode_io__0\.gfpga_pad_io_soc_dir
*230 cby_0__8_\.grid_io_left_left_0__1_\.logical_tile_io_mode_io__0\.gfpga_pad_io_soc_out
*231 cby_0__8_\.grid_io_left_left_0__1_\.logical_tile_io_mode_io__0\.logical_tile_io_mode_physical__iopad_0\.io_0_\.SOC_DIR_N
*232 cby_0__8_\.grid_io_left_left_0__1_\.logical_tile_io_mode_io__1\.ccff_tail
*233 cby_0__8_\.grid_io_left_left_0__1_\.logical_tile_io_mode_io__1\.gfpga_pad_io_soc_dir
*234 cby_0__8_\.grid_io_left_left_0__1_\.logical_tile_io_mode_io__1\.gfpga_pad_io_soc_out
*235 cby_0__8_\.grid_io_left_left_0__1_\.logical_tile_io_mode_io__1\.logical_tile_io_mode_physical__iopad_0\.io_0_\.SOC_DIR_N
*236 cby_0__8_\.grid_io_left_left_0__1_\.logical_tile_io_mode_io__2\.ccff_tail
*237 cby_0__8_\.grid_io_left_left_0__1_\.logical_tile_io_mode_io__2\.gfpga_pad_io_soc_dir
*238 cby_0__8_\.grid_io_left_left_0__1_\.logical_tile_io_mode_io__2\.gfpga_pad_io_soc_out
*239 cby_0__8_\.grid_io_left_left_0__1_\.logical_tile_io_mode_io__2\.logical_tile_io_mode_physical__iopad_0\.io_0_\.SOC_DIR_N
*240 cby_0__8_\.grid_io_left_left_0__1_\.logical_tile_io_mode_io__3\.gfpga_pad_io_soc_dir
*241 cby_0__8_\.grid_io_left_left_0__1_\.logical_tile_io_mode_io__3\.gfpga_pad_io_soc_out
*242 cby_0__8_\.grid_io_left_left_0__1_\.logical_tile_io_mode_io__3\.logical_tile_io_mode_physical__iopad_0\.io_0_\.SOC_DIR_N
*243 clknet_0_prog_clk
*244 clknet_4_0_0_prog_clk
*245 clknet_4_10_0_prog_clk
*246 clknet_4_11_0_prog_clk
*247 clknet_4_12_0_prog_clk
*248 clknet_4_13_0_prog_clk
*249 clknet_4_14_0_prog_clk
*250 clknet_4_15_0_prog_clk
*251 clknet_4_1_0_prog_clk
*252 clknet_4_2_0_prog_clk
*253 clknet_4_3_0_prog_clk
*254 clknet_4_4_0_prog_clk
*255 clknet_4_5_0_prog_clk
*256 clknet_4_6_0_prog_clk
*257 clknet_4_7_0_prog_clk
*258 clknet_4_8_0_prog_clk
*259 clknet_4_9_0_prog_clk
*260 net1
*261 net10
*262 net100
*263 net101
*264 net102
*265 net103
*266 net104
*267 net105
*268 net106
*269 net107
*270 net108
*271 net109
*272 net11
*273 net110
*274 net111
*275 net112
*276 net113
*277 net114
*278 net115
*279 net116
*280 net117
*281 net118
*282 net119
*283 net12
*284 net120
*285 net121
*286 net122
*287 net123
*288 net124
*289 net125
*290 net126
*291 net127
*292 net128
*293 net129
*294 net13
*295 net130
*296 net131
*297 net132
*298 net133
*299 net134
*300 net135
*301 net136
*302 net137
*303 net138
*304 net139
*305 net14
*306 net140
*307 net141
*308 net142
*309 net143
*310 net144
*311 net145
*312 net146
*313 net147
*314 net148
*315 net149
*316 net15
*317 net150
*318 net151
*319 net152
*320 net153
*321 net154
*322 net155
*323 net156
*324 net157
*325 net158
*326 net159
*327 net16
*328 net160
*329 net161
*330 net162
*331 net163
*332 net164
*333 net165
*334 net166
*335 net167
*336 net168
*337 net169
*338 net17
*339 net170
*340 net171
*341 net172
*342 net173
*343 net174
*344 net175
*345 net176
*346 net177
*347 net178
*348 net179
*349 net18
*350 net180
*351 net181
*352 net182
*353 net183
*354 net184
*355 net185
*356 net186
*357 net187
*358 net188
*359 net189
*360 net19
*361 net190
*362 net191
*363 net192
*364 net193
*365 net194
*366 net195
*367 net196
*368 net197
*369 net198
*370 net199
*371 net2
*372 net20
*373 net200
*374 net201
*375 net202
*376 net203
*377 net204
*378 net205
*379 net206
*380 net207
*381 net208
*382 net209
*383 net21
*384 net210
*385 net211
*386 net212
*387 net213
*388 net214
*389 net215
*390 net22
*391 net23
*392 net24
*393 net25
*394 net26
*395 net27
*396 net28
*397 net29
*398 net3
*399 net30
*400 net31
*401 net32
*402 net33
*403 net34
*404 net35
*405 net36
*406 net37
*407 net38
*408 net39
*409 net4
*410 net40
*411 net41
*412 net42
*413 net43
*414 net44
*415 net45
*416 net46
*417 net47
*418 net48
*419 net49
*420 net5
*421 net50
*422 net51
*423 net52
*424 net53
*425 net54
*426 net55
*427 net56
*428 net57
*429 net58
*430 net59
*431 net6
*432 net60
*433 net61
*434 net62
*435 net63
*436 net64
*437 net65
*438 net66
*439 net67
*440 net68
*441 net69
*442 net7
*443 net70
*444 net71
*445 net72
*446 net73
*447 net74
*448 net75
*449 net76
*450 net77
*451 net78
*452 net79
*453 net8
*454 net80
*455 net81
*456 net82
*457 net83
*458 net84
*459 net85
*460 net86
*461 net87
*462 net88
*463 net89
*464 net9
*465 net90
*466 net91
*467 net92
*468 net93
*469 net94
*470 net95
*471 net96
*472 net97
*473 net98
*474 net99
*475 sb_0__8_\.mem_bottom_track_1\.ccff_head
*476 sb_0__8_\.mem_bottom_track_1\.ccff_tail
*477 sb_0__8_\.mem_bottom_track_1\.mem_out\[0\]
*478 sb_0__8_\.mem_bottom_track_11\.ccff_head
*479 sb_0__8_\.mem_bottom_track_11\.ccff_tail
*480 sb_0__8_\.mem_bottom_track_11\.mem_out\[0\]
*481 sb_0__8_\.mem_bottom_track_13\.ccff_tail
*482 sb_0__8_\.mem_bottom_track_13\.mem_out\[0\]
*483 sb_0__8_\.mem_bottom_track_15\.ccff_tail
*484 sb_0__8_\.mem_bottom_track_15\.mem_out\[0\]
*485 sb_0__8_\.mem_bottom_track_17\.ccff_tail
*486 sb_0__8_\.mem_bottom_track_17\.mem_out\[0\]
*487 sb_0__8_\.mem_bottom_track_19\.ccff_tail
*488 sb_0__8_\.mem_bottom_track_19\.mem_out\[0\]
*489 sb_0__8_\.mem_bottom_track_29\.ccff_tail
*490 sb_0__8_\.mem_bottom_track_29\.mem_out\[0\]
*491 sb_0__8_\.mem_bottom_track_3\.ccff_tail
*492 sb_0__8_\.mem_bottom_track_3\.mem_out\[0\]
*493 sb_0__8_\.mem_bottom_track_31\.ccff_tail
*494 sb_0__8_\.mem_bottom_track_31\.mem_out\[0\]
*495 sb_0__8_\.mem_bottom_track_33\.ccff_tail
*496 sb_0__8_\.mem_bottom_track_33\.mem_out\[0\]
*497 sb_0__8_\.mem_bottom_track_35\.ccff_tail
*498 sb_0__8_\.mem_bottom_track_35\.mem_out\[0\]
*499 sb_0__8_\.mem_bottom_track_45\.ccff_tail
*500 sb_0__8_\.mem_bottom_track_45\.mem_out\[0\]
*501 sb_0__8_\.mem_bottom_track_47\.ccff_tail
*502 sb_0__8_\.mem_bottom_track_47\.mem_out\[0\]
*503 sb_0__8_\.mem_bottom_track_49\.ccff_tail
*504 sb_0__8_\.mem_bottom_track_49\.mem_out\[0\]
*505 sb_0__8_\.mem_bottom_track_5\.ccff_tail
*506 sb_0__8_\.mem_bottom_track_5\.mem_out\[0\]
*507 sb_0__8_\.mem_bottom_track_51\.mem_out\[0\]
*508 sb_0__8_\.mem_bottom_track_7\.ccff_tail
*509 sb_0__8_\.mem_bottom_track_7\.mem_out\[0\]
*510 sb_0__8_\.mem_bottom_track_9\.mem_out\[0\]
*511 sb_0__8_\.mem_right_track_0\.ccff_tail
*512 sb_0__8_\.mem_right_track_0\.mem_out\[0\]
*513 sb_0__8_\.mem_right_track_0\.mem_out\[1\]
*514 sb_0__8_\.mem_right_track_10\.ccff_head
*515 sb_0__8_\.mem_right_track_10\.ccff_tail
*516 sb_0__8_\.mem_right_track_10\.mem_out\[0\]
*517 sb_0__8_\.mem_right_track_10\.mem_out\[1\]
*518 sb_0__8_\.mem_right_track_12\.ccff_tail
*519 sb_0__8_\.mem_right_track_12\.mem_out\[0\]
*520 sb_0__8_\.mem_right_track_14\.ccff_tail
*521 sb_0__8_\.mem_right_track_14\.mem_out\[0\]
*522 sb_0__8_\.mem_right_track_16\.ccff_tail
*523 sb_0__8_\.mem_right_track_16\.mem_out\[0\]
*524 sb_0__8_\.mem_right_track_18\.ccff_tail
*525 sb_0__8_\.mem_right_track_18\.mem_out\[0\]
*526 sb_0__8_\.mem_right_track_2\.ccff_tail
*527 sb_0__8_\.mem_right_track_2\.mem_out\[0\]
*528 sb_0__8_\.mem_right_track_2\.mem_out\[1\]
*529 sb_0__8_\.mem_right_track_20\.ccff_tail
*530 sb_0__8_\.mem_right_track_20\.mem_out\[0\]
*531 sb_0__8_\.mem_right_track_22\.ccff_tail
*532 sb_0__8_\.mem_right_track_22\.mem_out\[0\]
*533 sb_0__8_\.mem_right_track_24\.ccff_tail
*534 sb_0__8_\.mem_right_track_24\.mem_out\[0\]
*535 sb_0__8_\.mem_right_track_26\.ccff_tail
*536 sb_0__8_\.mem_right_track_26\.mem_out\[0\]
*537 sb_0__8_\.mem_right_track_28\.ccff_tail
*538 sb_0__8_\.mem_right_track_28\.mem_out\[0\]
*539 sb_0__8_\.mem_right_track_30\.ccff_tail
*540 sb_0__8_\.mem_right_track_30\.mem_out\[0\]
*541 sb_0__8_\.mem_right_track_32\.ccff_tail
*542 sb_0__8_\.mem_right_track_32\.mem_out\[0\]
*543 sb_0__8_\.mem_right_track_34\.ccff_tail
*544 sb_0__8_\.mem_right_track_34\.mem_out\[0\]
*545 sb_0__8_\.mem_right_track_36\.ccff_tail
*546 sb_0__8_\.mem_right_track_36\.mem_out\[0\]
*547 sb_0__8_\.mem_right_track_38\.ccff_tail
*548 sb_0__8_\.mem_right_track_38\.mem_out\[0\]
*549 sb_0__8_\.mem_right_track_4\.ccff_tail
*550 sb_0__8_\.mem_right_track_4\.mem_out\[0\]
*551 sb_0__8_\.mem_right_track_4\.mem_out\[1\]
*552 sb_0__8_\.mem_right_track_40\.ccff_tail
*553 sb_0__8_\.mem_right_track_40\.mem_out\[0\]
*554 sb_0__8_\.mem_right_track_42\.ccff_tail
*555 sb_0__8_\.mem_right_track_42\.mem_out\[0\]
*556 sb_0__8_\.mem_right_track_44\.ccff_tail
*557 sb_0__8_\.mem_right_track_44\.mem_out\[0\]
*558 sb_0__8_\.mem_right_track_46\.ccff_tail
*559 sb_0__8_\.mem_right_track_46\.mem_out\[0\]
*560 sb_0__8_\.mem_right_track_48\.ccff_tail
*561 sb_0__8_\.mem_right_track_48\.mem_out\[0\]
*562 sb_0__8_\.mem_right_track_50\.ccff_tail
*563 sb_0__8_\.mem_right_track_50\.mem_out\[0\]
*564 sb_0__8_\.mem_right_track_52\.ccff_tail
*565 sb_0__8_\.mem_right_track_52\.mem_out\[0\]
*566 sb_0__8_\.mem_right_track_54\.ccff_tail
*567 sb_0__8_\.mem_right_track_54\.mem_out\[0\]
*568 sb_0__8_\.mem_right_track_56\.ccff_tail
*569 sb_0__8_\.mem_right_track_56\.mem_out\[0\]
*570 sb_0__8_\.mem_right_track_58\.mem_out\[0\]
*571 sb_0__8_\.mem_right_track_6\.ccff_tail
*572 sb_0__8_\.mem_right_track_6\.mem_out\[0\]
*573 sb_0__8_\.mem_right_track_6\.mem_out\[1\]
*574 sb_0__8_\.mem_right_track_8\.mem_out\[0\]
*575 sb_0__8_\.mem_right_track_8\.mem_out\[1\]
*576 sb_0__8_\.mux_bottom_track_1\.out
*577 sb_0__8_\.mux_bottom_track_1\.sky130_fd_sc_hd__mux2_1_0_X
*578 sb_0__8_\.mux_bottom_track_1\.sky130_fd_sc_hd__mux2_1_1_X
*579 sb_0__8_\.mux_bottom_track_1\.sky130_fd_sc_hd__mux2_1_2_X
*580 sb_0__8_\.mux_bottom_track_11\.out
*581 sb_0__8_\.mux_bottom_track_11\.sky130_fd_sc_hd__mux2_1_0_X
*582 sb_0__8_\.mux_bottom_track_11\.sky130_fd_sc_hd__mux2_1_1_X
*583 sb_0__8_\.mux_bottom_track_13\.out
*584 sb_0__8_\.mux_bottom_track_13\.sky130_fd_sc_hd__mux2_1_0_X
*585 sb_0__8_\.mux_bottom_track_13\.sky130_fd_sc_hd__mux2_1_1_X
*586 sb_0__8_\.mux_bottom_track_15\.out
*587 sb_0__8_\.mux_bottom_track_15\.sky130_fd_sc_hd__mux2_1_0_X
*588 sb_0__8_\.mux_bottom_track_15\.sky130_fd_sc_hd__mux2_1_1_X
*589 sb_0__8_\.mux_bottom_track_17\.out
*590 sb_0__8_\.mux_bottom_track_17\.sky130_fd_sc_hd__mux2_1_0_X
*591 sb_0__8_\.mux_bottom_track_17\.sky130_fd_sc_hd__mux2_1_1_X
*592 sb_0__8_\.mux_bottom_track_19\.out
*593 sb_0__8_\.mux_bottom_track_19\.sky130_fd_sc_hd__mux2_1_0_X
*594 sb_0__8_\.mux_bottom_track_19\.sky130_fd_sc_hd__mux2_1_1_X
*595 sb_0__8_\.mux_bottom_track_29\.out
*596 sb_0__8_\.mux_bottom_track_29\.sky130_fd_sc_hd__mux2_1_0_X
*597 sb_0__8_\.mux_bottom_track_29\.sky130_fd_sc_hd__mux2_1_1_X
*598 sb_0__8_\.mux_bottom_track_3\.out
*599 sb_0__8_\.mux_bottom_track_3\.sky130_fd_sc_hd__mux2_1_0_X
*600 sb_0__8_\.mux_bottom_track_3\.sky130_fd_sc_hd__mux2_1_1_X
*601 sb_0__8_\.mux_bottom_track_31\.out
*602 sb_0__8_\.mux_bottom_track_31\.sky130_fd_sc_hd__mux2_1_0_X
*603 sb_0__8_\.mux_bottom_track_31\.sky130_fd_sc_hd__mux2_1_1_X
*604 sb_0__8_\.mux_bottom_track_33\.out
*605 sb_0__8_\.mux_bottom_track_33\.sky130_fd_sc_hd__mux2_1_0_X
*606 sb_0__8_\.mux_bottom_track_33\.sky130_fd_sc_hd__mux2_1_1_X
*607 sb_0__8_\.mux_bottom_track_35\.out
*608 sb_0__8_\.mux_bottom_track_35\.sky130_fd_sc_hd__mux2_1_0_X
*609 sb_0__8_\.mux_bottom_track_35\.sky130_fd_sc_hd__mux2_1_1_X
*610 sb_0__8_\.mux_bottom_track_45\.out
*611 sb_0__8_\.mux_bottom_track_45\.sky130_fd_sc_hd__mux2_1_0_X
*612 sb_0__8_\.mux_bottom_track_45\.sky130_fd_sc_hd__mux2_1_1_X
*613 sb_0__8_\.mux_bottom_track_47\.out
*614 sb_0__8_\.mux_bottom_track_47\.sky130_fd_sc_hd__mux2_1_0_X
*615 sb_0__8_\.mux_bottom_track_47\.sky130_fd_sc_hd__mux2_1_1_X
*616 sb_0__8_\.mux_bottom_track_49\.out
*617 sb_0__8_\.mux_bottom_track_49\.sky130_fd_sc_hd__mux2_1_0_X
*618 sb_0__8_\.mux_bottom_track_49\.sky130_fd_sc_hd__mux2_1_1_X
*619 sb_0__8_\.mux_bottom_track_5\.out
*620 sb_0__8_\.mux_bottom_track_5\.sky130_fd_sc_hd__mux2_1_0_X
*621 sb_0__8_\.mux_bottom_track_5\.sky130_fd_sc_hd__mux2_1_1_X
*622 sb_0__8_\.mux_bottom_track_51\.out
*623 sb_0__8_\.mux_bottom_track_51\.sky130_fd_sc_hd__mux2_1_0_X
*624 sb_0__8_\.mux_bottom_track_51\.sky130_fd_sc_hd__mux2_1_1_X
*625 sb_0__8_\.mux_bottom_track_7\.out
*626 sb_0__8_\.mux_bottom_track_7\.sky130_fd_sc_hd__mux2_1_0_X
*627 sb_0__8_\.mux_bottom_track_7\.sky130_fd_sc_hd__mux2_1_1_X
*628 sb_0__8_\.mux_bottom_track_7\.sky130_fd_sc_hd__mux2_1_2_X
*629 sb_0__8_\.mux_bottom_track_9\.out
*630 sb_0__8_\.mux_bottom_track_9\.sky130_fd_sc_hd__mux2_1_0_X
*631 sb_0__8_\.mux_bottom_track_9\.sky130_fd_sc_hd__mux2_1_1_X
*632 sb_0__8_\.mux_right_track_0\.out
*633 sb_0__8_\.mux_right_track_0\.sky130_fd_sc_hd__mux2_1_0_X
*634 sb_0__8_\.mux_right_track_0\.sky130_fd_sc_hd__mux2_1_1_X
*635 sb_0__8_\.mux_right_track_0\.sky130_fd_sc_hd__mux2_1_2_X
*636 sb_0__8_\.mux_right_track_0\.sky130_fd_sc_hd__mux2_1_3_X
*637 sb_0__8_\.mux_right_track_0\.sky130_fd_sc_hd__mux2_1_4_X
*638 sb_0__8_\.mux_right_track_10\.out
*639 sb_0__8_\.mux_right_track_10\.sky130_fd_sc_hd__mux2_1_0_X
*640 sb_0__8_\.mux_right_track_10\.sky130_fd_sc_hd__mux2_1_1_X
*641 sb_0__8_\.mux_right_track_10\.sky130_fd_sc_hd__mux2_1_2_X
*642 sb_0__8_\.mux_right_track_10\.sky130_fd_sc_hd__mux2_1_3_X
*643 sb_0__8_\.mux_right_track_10\.sky130_fd_sc_hd__mux2_1_4_X
*644 sb_0__8_\.mux_right_track_12\.out
*645 sb_0__8_\.mux_right_track_12\.sky130_fd_sc_hd__mux2_1_0_X
*646 sb_0__8_\.mux_right_track_12\.sky130_fd_sc_hd__mux2_1_1_X
*647 sb_0__8_\.mux_right_track_12\.sky130_fd_sc_hd__mux2_1_2_X
*648 sb_0__8_\.mux_right_track_14\.out
*649 sb_0__8_\.mux_right_track_14\.sky130_fd_sc_hd__mux2_1_0_X
*650 sb_0__8_\.mux_right_track_14\.sky130_fd_sc_hd__mux2_1_1_X
*651 sb_0__8_\.mux_right_track_14\.sky130_fd_sc_hd__mux2_1_2_X
*652 sb_0__8_\.mux_right_track_16\.out
*653 sb_0__8_\.mux_right_track_16\.sky130_fd_sc_hd__mux2_1_0_X
*654 sb_0__8_\.mux_right_track_16\.sky130_fd_sc_hd__mux2_1_1_X
*655 sb_0__8_\.mux_right_track_16\.sky130_fd_sc_hd__mux2_1_2_X
*656 sb_0__8_\.mux_right_track_18\.out
*657 sb_0__8_\.mux_right_track_18\.sky130_fd_sc_hd__mux2_1_0_X
*658 sb_0__8_\.mux_right_track_18\.sky130_fd_sc_hd__mux2_1_1_X
*659 sb_0__8_\.mux_right_track_2\.out
*660 sb_0__8_\.mux_right_track_2\.sky130_fd_sc_hd__mux2_1_0_X
*661 sb_0__8_\.mux_right_track_2\.sky130_fd_sc_hd__mux2_1_1_X
*662 sb_0__8_\.mux_right_track_2\.sky130_fd_sc_hd__mux2_1_2_X
*663 sb_0__8_\.mux_right_track_2\.sky130_fd_sc_hd__mux2_1_3_X
*664 sb_0__8_\.mux_right_track_2\.sky130_fd_sc_hd__mux2_1_4_X
*665 sb_0__8_\.mux_right_track_20\.out
*666 sb_0__8_\.mux_right_track_20\.sky130_fd_sc_hd__mux2_1_0_X
*667 sb_0__8_\.mux_right_track_20\.sky130_fd_sc_hd__mux2_1_1_X
*668 sb_0__8_\.mux_right_track_22\.out
*669 sb_0__8_\.mux_right_track_22\.sky130_fd_sc_hd__mux2_1_0_X
*670 sb_0__8_\.mux_right_track_22\.sky130_fd_sc_hd__mux2_1_1_X
*671 sb_0__8_\.mux_right_track_24\.out
*672 sb_0__8_\.mux_right_track_24\.sky130_fd_sc_hd__mux2_1_0_X
*673 sb_0__8_\.mux_right_track_24\.sky130_fd_sc_hd__mux2_1_1_X
*674 sb_0__8_\.mux_right_track_26\.out
*675 sb_0__8_\.mux_right_track_26\.sky130_fd_sc_hd__mux2_1_0_X
*676 sb_0__8_\.mux_right_track_26\.sky130_fd_sc_hd__mux2_1_1_X
*677 sb_0__8_\.mux_right_track_28\.out
*678 sb_0__8_\.mux_right_track_28\.sky130_fd_sc_hd__mux2_1_0_X
*679 sb_0__8_\.mux_right_track_28\.sky130_fd_sc_hd__mux2_1_1_X
*680 sb_0__8_\.mux_right_track_28\.sky130_fd_sc_hd__mux2_1_2_X
*681 sb_0__8_\.mux_right_track_30\.out
*682 sb_0__8_\.mux_right_track_30\.sky130_fd_sc_hd__mux2_1_0_X
*683 sb_0__8_\.mux_right_track_30\.sky130_fd_sc_hd__mux2_1_1_X
*684 sb_0__8_\.mux_right_track_30\.sky130_fd_sc_hd__mux2_1_2_X
*685 sb_0__8_\.mux_right_track_32\.out
*686 sb_0__8_\.mux_right_track_32\.sky130_fd_sc_hd__mux2_1_0_X
*687 sb_0__8_\.mux_right_track_32\.sky130_fd_sc_hd__mux2_1_1_X
*688 sb_0__8_\.mux_right_track_32\.sky130_fd_sc_hd__mux2_1_2_X
*689 sb_0__8_\.mux_right_track_34\.out
*690 sb_0__8_\.mux_right_track_34\.sky130_fd_sc_hd__mux2_1_0_X
*691 sb_0__8_\.mux_right_track_34\.sky130_fd_sc_hd__mux2_1_1_X
*692 sb_0__8_\.mux_right_track_34\.sky130_fd_sc_hd__mux2_1_2_X
*693 sb_0__8_\.mux_right_track_36\.out
*694 sb_0__8_\.mux_right_track_36\.sky130_fd_sc_hd__mux2_1_0_X
*695 sb_0__8_\.mux_right_track_36\.sky130_fd_sc_hd__mux2_1_1_X
*696 sb_0__8_\.mux_right_track_38\.out
*697 sb_0__8_\.mux_right_track_38\.sky130_fd_sc_hd__mux2_1_0_X
*698 sb_0__8_\.mux_right_track_38\.sky130_fd_sc_hd__mux2_1_1_X
*699 sb_0__8_\.mux_right_track_4\.out
*700 sb_0__8_\.mux_right_track_4\.sky130_fd_sc_hd__mux2_1_0_X
*701 sb_0__8_\.mux_right_track_4\.sky130_fd_sc_hd__mux2_1_1_X
*702 sb_0__8_\.mux_right_track_4\.sky130_fd_sc_hd__mux2_1_2_X
*703 sb_0__8_\.mux_right_track_4\.sky130_fd_sc_hd__mux2_1_3_X
*704 sb_0__8_\.mux_right_track_4\.sky130_fd_sc_hd__mux2_1_4_X
*705 sb_0__8_\.mux_right_track_40\.out
*706 sb_0__8_\.mux_right_track_40\.sky130_fd_sc_hd__mux2_1_0_X
*707 sb_0__8_\.mux_right_track_40\.sky130_fd_sc_hd__mux2_1_1_X
*708 sb_0__8_\.mux_right_track_42\.out
*709 sb_0__8_\.mux_right_track_42\.sky130_fd_sc_hd__mux2_1_0_X
*710 sb_0__8_\.mux_right_track_42\.sky130_fd_sc_hd__mux2_1_1_X
*711 sb_0__8_\.mux_right_track_44\.out
*712 sb_0__8_\.mux_right_track_44\.sky130_fd_sc_hd__mux2_1_0_X
*713 sb_0__8_\.mux_right_track_44\.sky130_fd_sc_hd__mux2_1_1_X
*714 sb_0__8_\.mux_right_track_44\.sky130_fd_sc_hd__mux2_1_2_X
*715 sb_0__8_\.mux_right_track_46\.out
*716 sb_0__8_\.mux_right_track_46\.sky130_fd_sc_hd__mux2_1_0_X
*717 sb_0__8_\.mux_right_track_46\.sky130_fd_sc_hd__mux2_1_1_X
*718 sb_0__8_\.mux_right_track_46\.sky130_fd_sc_hd__mux2_1_2_X
*719 sb_0__8_\.mux_right_track_48\.out
*720 sb_0__8_\.mux_right_track_48\.sky130_fd_sc_hd__mux2_1_0_X
*721 sb_0__8_\.mux_right_track_48\.sky130_fd_sc_hd__mux2_1_1_X
*722 sb_0__8_\.mux_right_track_48\.sky130_fd_sc_hd__mux2_1_2_X
*723 sb_0__8_\.mux_right_track_50\.out
*724 sb_0__8_\.mux_right_track_50\.sky130_fd_sc_hd__mux2_1_0_X
*725 sb_0__8_\.mux_right_track_50\.sky130_fd_sc_hd__mux2_1_1_X
*726 sb_0__8_\.mux_right_track_52\.out
*727 sb_0__8_\.mux_right_track_52\.sky130_fd_sc_hd__mux2_1_0_X
*728 sb_0__8_\.mux_right_track_52\.sky130_fd_sc_hd__mux2_1_1_X
*729 sb_0__8_\.mux_right_track_54\.out
*730 sb_0__8_\.mux_right_track_54\.sky130_fd_sc_hd__mux2_1_0_X
*731 sb_0__8_\.mux_right_track_54\.sky130_fd_sc_hd__mux2_1_1_X
*732 sb_0__8_\.mux_right_track_56\.out
*733 sb_0__8_\.mux_right_track_56\.sky130_fd_sc_hd__mux2_1_0_X
*734 sb_0__8_\.mux_right_track_56\.sky130_fd_sc_hd__mux2_1_1_X
*735 sb_0__8_\.mux_right_track_58\.out
*736 sb_0__8_\.mux_right_track_58\.sky130_fd_sc_hd__mux2_1_0_X
*737 sb_0__8_\.mux_right_track_58\.sky130_fd_sc_hd__mux2_1_1_X
*738 sb_0__8_\.mux_right_track_58\.sky130_fd_sc_hd__mux2_1_2_X
*739 sb_0__8_\.mux_right_track_6\.out
*740 sb_0__8_\.mux_right_track_6\.sky130_fd_sc_hd__mux2_1_0_X
*741 sb_0__8_\.mux_right_track_6\.sky130_fd_sc_hd__mux2_1_1_X
*742 sb_0__8_\.mux_right_track_6\.sky130_fd_sc_hd__mux2_1_2_X
*743 sb_0__8_\.mux_right_track_6\.sky130_fd_sc_hd__mux2_1_3_X
*744 sb_0__8_\.mux_right_track_6\.sky130_fd_sc_hd__mux2_1_4_X
*745 sb_0__8_\.mux_right_track_8\.out
*746 sb_0__8_\.mux_right_track_8\.sky130_fd_sc_hd__mux2_1_0_X
*747 sb_0__8_\.mux_right_track_8\.sky130_fd_sc_hd__mux2_1_1_X
*748 sb_0__8_\.mux_right_track_8\.sky130_fd_sc_hd__mux2_1_2_X
*749 sb_0__8_\.mux_right_track_8\.sky130_fd_sc_hd__mux2_1_3_X
*750 sb_0__8_\.mux_right_track_8\.sky130_fd_sc_hd__mux2_1_4_X
*751 ANTENNA__110__A
*752 ANTENNA__135__A
*753 ANTENNA__136__A
*754 ANTENNA__137__A
*755 ANTENNA__139__A
*756 ANTENNA__142__A
*757 ANTENNA__143__A
*758 ANTENNA__144__A
*759 ANTENNA__145__A
*760 ANTENNA__148__A
*761 ANTENNA__149__A
*762 ANTENNA__150__A
*763 ANTENNA__151__A
*764 ANTENNA__152__A
*765 ANTENNA__153__A
*766 ANTENNA__154__A
*767 ANTENNA__156__A
*768 ANTENNA__157__A
*769 ANTENNA__158__A
*770 ANTENNA__159__A
*771 ANTENNA__160__A
*772 ANTENNA__161__A
*773 ANTENNA__163__A
*774 ANTENNA_cby_0__8_\.cby_0__1_\.mem_right_ipin_0\.sky130_fd_sc_hd__dfrtp_1_0__RESET_B
*775 ANTENNA_cby_0__8_\.cby_0__1_\.mem_right_ipin_0\.sky130_fd_sc_hd__dfrtp_1_1__D
*776 ANTENNA_cby_0__8_\.cby_0__1_\.mem_right_ipin_0\.sky130_fd_sc_hd__dfrtp_1_1__RESET_B
*777 ANTENNA_cby_0__8_\.cby_0__1_\.mem_right_ipin_0\.sky130_fd_sc_hd__dfrtp_1_2__RESET_B
*778 ANTENNA_cby_0__8_\.cby_0__1_\.mem_right_ipin_0\.sky130_fd_sc_hd__dfrtp_1_3__RESET_B
*779 ANTENNA_cby_0__8_\.cby_0__1_\.mem_right_ipin_1\.sky130_fd_sc_hd__dfrtp_1_0__RESET_B
*780 ANTENNA_cby_0__8_\.cby_0__1_\.mem_right_ipin_1\.sky130_fd_sc_hd__dfrtp_1_1__RESET_B
*781 ANTENNA_cby_0__8_\.cby_0__1_\.mem_right_ipin_1\.sky130_fd_sc_hd__dfrtp_1_2__RESET_B
*782 ANTENNA_cby_0__8_\.cby_0__1_\.mem_right_ipin_1\.sky130_fd_sc_hd__dfrtp_1_3__RESET_B
*783 ANTENNA_cby_0__8_\.cby_0__1_\.mem_right_ipin_2\.sky130_fd_sc_hd__dfrtp_1_0__RESET_B
*784 ANTENNA_cby_0__8_\.cby_0__1_\.mem_right_ipin_2\.sky130_fd_sc_hd__dfrtp_1_1__RESET_B