*SPEF "ieee 1481-1999"
*DESIGN "top_left_tile"
*DATE "11:11:11 Fri 11 11, 1111"
*VENDOR "OpenRCX"
*PROGRAM "Parallel Extraction"
*VERSION "1.0"
*DESIGN_FLOW "NAME_SCOPE LOCAL" "PIN_CAP NONE"
*DIVIDER /
*DELIMITER :
*BUS_DELIMITER []
*T_UNIT 1 NS
*C_UNIT 1 PF
*R_UNIT 1 OHM
*L_UNIT 1 HENRY

*NAME_MAP
*3 ccff_head
*4 ccff_head_0
*5 ccff_tail
*6 ccff_tail_0
*7 chanx_right_in[0]
*8 chanx_right_in[10]
*9 chanx_right_in[11]
*10 chanx_right_in[12]
*11 chanx_right_in[13]
*12 chanx_right_in[14]
*13 chanx_right_in[15]
*14 chanx_right_in[16]
*15 chanx_right_in[17]
*16 chanx_right_in[18]
*17 chanx_right_in[19]
*18 chanx_right_in[1]
*19 chanx_right_in[20]
*20 chanx_right_in[21]
*21 chanx_right_in[22]
*22 chanx_right_in[23]
*23 chanx_right_in[24]
*24 chanx_right_in[25]
*25 chanx_right_in[26]
*26 chanx_right_in[27]
*27 chanx_right_in[28]
*28 chanx_right_in[29]
*29 chanx_right_in[2]
*30 chanx_right_in[3]
*31 chanx_right_in[4]
*32 chanx_right_in[5]
*33 chanx_right_in[6]
*34 chanx_right_in[7]
*35 chanx_right_in[8]
*36 chanx_right_in[9]
*37 chanx_right_out[0]
*38 chanx_right_out[10]
*39 chanx_right_out[11]
*40 chanx_right_out[12]
*41 chanx_right_out[13]
*42 chanx_right_out[14]
*43 chanx_right_out[15]
*44 chanx_right_out[16]
*45 chanx_right_out[17]
*46 chanx_right_out[18]
*47 chanx_right_out[19]
*48 chanx_right_out[1]
*49 chanx_right_out[20]
*50 chanx_right_out[21]
*51 chanx_right_out[22]
*52 chanx_right_out[23]
*53 chanx_right_out[24]
*54 chanx_right_out[25]
*55 chanx_right_out[26]
*56 chanx_right_out[27]
*57 chanx_right_out[28]
*58 chanx_right_out[29]
*59 chanx_right_out[2]
*60 chanx_right_out[3]
*61 chanx_right_out[4]
*62 chanx_right_out[5]
*63 chanx_right_out[6]
*64 chanx_right_out[7]
*65 chanx_right_out[8]
*66 chanx_right_out[9]
*67 chany_bottom_in_0[0]
*68 chany_bottom_in_0[10]
*69 chany_bottom_in_0[11]
*70 chany_bottom_in_0[12]
*71 chany_bottom_in_0[13]
*72 chany_bottom_in_0[14]
*73 chany_bottom_in_0[15]
*74 chany_bottom_in_0[16]
*75 chany_bottom_in_0[17]
*76 chany_bottom_in_0[18]
*77 chany_bottom_in_0[19]
*78 chany_bottom_in_0[1]
*79 chany_bottom_in_0[20]
*80 chany_bottom_in_0[21]
*81 chany_bottom_in_0[22]
*82 chany_bottom_in_0[23]
*83 chany_bottom_in_0[24]
*84 chany_bottom_in_0[25]
*85 chany_bottom_in_0[26]
*86 chany_bottom_in_0[27]
*87 chany_bottom_in_0[28]
*88 chany_bottom_in_0[29]
*89 chany_bottom_in_0[2]
*90 chany_bottom_in_0[3]
*91 chany_bottom_in_0[4]
*92 chany_bottom_in_0[5]
*93 chany_bottom_in_0[6]
*94 chany_bottom_in_0[7]
*95 chany_bottom_in_0[8]
*96 chany_bottom_in_0[9]
*97 chany_bottom_out_0[0]
*98 chany_bottom_out_0[10]
*99 chany_bottom_out_0[11]
*100 chany_bottom_out_0[12]
*101 chany_bottom_out_0[13]
*102 chany_bottom_out_0[14]
*103 chany_bottom_out_0[15]
*104 chany_bottom_out_0[16]
*105 chany_bottom_out_0[17]
*106 chany_bottom_out_0[18]
*107 chany_bottom_out_0[19]
*108 chany_bottom_out_0[1]
*109 chany_bottom_out_0[20]
*110 chany_bottom_out_0[21]
*111 chany_bottom_out_0[22]
*112 chany_bottom_out_0[23]
*113 chany_bottom_out_0[24]
*114 chany_bottom_out_0[25]
*115 chany_bottom_out_0[26]
*116 chany_bottom_out_0[27]
*117 chany_bottom_out_0[28]
*118 chany_bottom_out_0[29]
*119 chany_bottom_out_0[2]
*120 chany_bottom_out_0[3]
*121 chany_bottom_out_0[4]
*122 chany_bottom_out_0[5]
*123 chany_bottom_out_0[6]
*124 chany_bottom_out_0[7]
*125 chany_bottom_out_0[8]
*126 chany_bottom_out_0[9]
*127 gfpga_pad_io_soc_dir[0]
*128 gfpga_pad_io_soc_dir[1]
*129 gfpga_pad_io_soc_dir[2]
*130 gfpga_pad_io_soc_dir[3]
*131 gfpga_pad_io_soc_in[0]
*132 gfpga_pad_io_soc_in[1]
*133 gfpga_pad_io_soc_in[2]
*134 gfpga_pad_io_soc_in[3]
*135 gfpga_pad_io_soc_out[0]
*136 gfpga_pad_io_soc_out[1]
*137 gfpga_pad_io_soc_out[2]
*138 gfpga_pad_io_soc_out[3]
*139 isol_n
*140 prog_clk
*141 prog_reset
*142 reset
*143 right_bottom_grid_top_width_0_height_0_subtile_0__pin_O_0_
*144 right_bottom_grid_top_width_0_height_0_subtile_0__pin_O_1_
*145 right_bottom_grid_top_width_0_height_0_subtile_0__pin_O_2_
*146 right_bottom_grid_top_width_0_height_0_subtile_0__pin_O_3_
*147 right_bottom_grid_top_width_0_height_0_subtile_0__pin_O_4_
*148 right_bottom_grid_top_width_0_height_0_subtile_0__pin_O_5_
*149 right_bottom_grid_top_width_0_height_0_subtile_0__pin_O_6_
*150 right_bottom_grid_top_width_0_height_0_subtile_0__pin_O_7_
*151 right_top_grid_bottom_width_0_height_0_subtile_0__pin_inpad_0_
*152 right_top_grid_bottom_width_0_height_0_subtile_1__pin_inpad_0_
*153 right_top_grid_bottom_width_0_height_0_subtile_2__pin_inpad_0_
*154 right_top_grid_bottom_width_0_height_0_subtile_3__pin_inpad_0_
*155 right_width_0_height_0_subtile_0__pin_inpad_0_
*156 right_width_0_height_0_subtile_1__pin_inpad_0_
*157 right_width_0_height_0_subtile_2__pin_inpad_0_
*158 right_width_0_height_0_subtile_3__pin_inpad_0_
*159 test_enable
*160 cby_0__8_\.cby_0__1_\.ccff_tail
*161 cby_0__8_\.cby_0__1_\.left_grid_right_width_0_height_0_subtile_0__pin_outpad_0_
*162 cby_0__8_\.cby_0__1_\.left_grid_right_width_0_height_0_subtile_1__pin_outpad_0_
*163 cby_0__8_\.cby_0__1_\.left_grid_right_width_0_height_0_subtile_2__pin_outpad_0_
*164 cby_0__8_\.cby_0__1_\.left_grid_right_width_0_height_0_subtile_3__pin_outpad_0_
*165 cby_0__8_\.cby_0__1_\.mem_right_ipin_0\.ccff_tail
*166 cby_0__8_\.cby_0__1_\.mem_right_ipin_0\.mem_out\[0\]
*167 cby_0__8_\.cby_0__1_\.mem_right_ipin_0\.mem_out\[1\]
*168 cby_0__8_\.cby_0__1_\.mem_right_ipin_0\.mem_out\[2\]
*169 cby_0__8_\.cby_0__1_\.mem_right_ipin_1\.ccff_tail
*170 cby_0__8_\.cby_0__1_\.mem_right_ipin_1\.mem_out\[0\]
*171 cby_0__8_\.cby_0__1_\.mem_right_ipin_1\.mem_out\[1\]
*172 cby_0__8_\.cby_0__1_\.mem_right_ipin_1\.mem_out\[2\]
*173 cby_0__8_\.cby_0__1_\.mem_right_ipin_2\.ccff_tail
*174 cby_0__8_\.cby_0__1_\.mem_right_ipin_2\.mem_out\[0\]
*175 cby_0__8_\.cby_0__1_\.mem_right_ipin_2\.mem_out\[1\]
*176 cby_0__8_\.cby_0__1_\.mem_right_ipin_2\.mem_out\[2\]
*177 cby_0__8_\.cby_0__1_\.mem_right_ipin_3\.mem_out\[0\]
*178 cby_0__8_\.cby_0__1_\.mem_right_ipin_3\.mem_out\[1\]
*179 cby_0__8_\.cby_0__1_\.mem_right_ipin_3\.mem_out\[2\]
*180 cby_0__8_\.cby_0__1_\.mux_right_ipin_0\.sky130_fd_sc_hd__mux2_1_0_X
*181 cby_0__8_\.cby_0__1_\.mux_right_ipin_0\.sky130_fd_sc_hd__mux2_1_10_X
*182 cby_0__8_\.cby_0__1_\.mux_right_ipin_0\.sky130_fd_sc_hd__mux2_1_11_X
*183 cby_0__8_\.cby_0__1_\.mux_right_ipin_0\.sky130_fd_sc_hd__mux2_1_1_X
*184 cby_0__8_\.cby_0__1_\.mux_right_ipin_0\.sky130_fd_sc_hd__mux2_1_2_X
*185 cby_0__8_\.cby_0__1_\.mux_right_ipin_0\.sky130_fd_sc_hd__mux2_1_3_X
*186 cby_0__8_\.cby_0__1_\.mux_right_ipin_0\.sky130_fd_sc_hd__mux2_1_4_X
*187 cby_0__8_\.cby_0__1_\.mux_right_ipin_0\.sky130_fd_sc_hd__mux2_1_5_X
*188 cby_0__8_\.cby_0__1_\.mux_right_ipin_0\.sky130_fd_sc_hd__mux2_1_6_X
*189 cby_0__8_\.cby_0__1_\.mux_right_ipin_0\.sky130_fd_sc_hd__mux2_1_7_X
*190 cby_0__8_\.cby_0__1_\.mux_right_ipin_0\.sky130_fd_sc_hd__mux2_1_8_X
*191 cby_0__8_\.cby_0__1_\.mux_right_ipin_0\.sky130_fd_sc_hd__mux2_1_9_X
*192 cby_0__8_\.cby_0__1_\.mux_right_ipin_1\.sky130_fd_sc_hd__mux2_1_0_X
*193 cby_0__8_\.cby_0__1_\.mux_right_ipin_1\.sky130_fd_sc_hd__mux2_1_10_X
*194 cby_0__8_\.cby_0__1_\.mux_right_ipin_1\.sky130_fd_sc_hd__mux2_1_11_X
*195 cby_0__8_\.cby_0__1_\.mux_right_ipin_1\.sky130_fd_sc_hd__mux2_1_1_X
*196 cby_0__8_\.cby_0__1_\.mux_right_ipin_1\.sky130_fd_sc_hd__mux2_1_2_X
*197 cby_0__8_\.cby_0__1_\.mux_right_ipin_1\.sky130_fd_sc_hd__mux2_1_3_X
*198 cby_0__8_\.cby_0__1_\.mux_right_ipin_1\.sky130_fd_sc_hd__mux2_1_4_X
*199 cby_0__8_\.cby_0__1_\.mux_right_ipin_1\.sky130_fd_sc_hd__mux2_1_5_X
*200 cby_0__8_\.cby_0__1_\.mux_right_ipin_1\.sky130_fd_sc_hd__mux2_1_6_X
*201 cby_0__8_\.cby_0__1_\.mux_right_ipin_1\.sky130_fd_sc_hd__mux2_1_7_X
*202 cby_0__8_\.cby_0__1_\.mux_right_ipin_1\.sky130_fd_sc_hd__mux2_1_8_X
*203 cby_0__8_\.cby_0__1_\.mux_right_ipin_1\.sky130_fd_sc_hd__mux2_1_9_X
*204 cby_0__8_\.cby_0__1_\.mux_right_ipin_2\.sky130_fd_sc_hd__mux2_1_0_X
*205 cby_0__8_\.cby_0__1_\.mux_right_ipin_2\.sky130_fd_sc_hd__mux2_1_10_X
*206 cby_0__8_\.cby_0__1_\.mux_right_ipin_2\.sky130_fd_sc_hd__mux2_1_11_X
*207 cby_0__8_\.cby_0__1_\.mux_right_ipin_2\.sky130_fd_sc_hd__mux2_1_1_X
*208 cby_0__8_\.cby_0__1_\.mux_right_ipin_2\.sky130_fd_sc_hd__mux2_1_2_X
*209 cby_0__8_\.cby_0__1_\.mux_right_ipin_2\.sky130_fd_sc_hd__mux2_1_3_X
*210 cby_0__8_\.cby_0__1_\.mux_right_ipin_2\.sky130_fd_sc_hd__mux2_1_4_X
*211 cby_0__8_\.cby_0__1_\.mux_right_ipin_2\.sky130_fd_sc_hd__mux2_1_5_X
*212 cby_0__8_\.cby_0__1_\.mux_right_ipin_2\.sky130_fd_sc_hd__mux2_1_6_X
*213 cby_0__8_\.cby_0__1_\.mux_right_ipin_2\.sky130_fd_sc_hd__mux2_1_7_X
*214 cby_0__8_\.cby_0__1_\.mux_right_ipin_2\.sky130_fd_sc_hd__mux2_1_8_X
*215 cby_0__8_\.cby_0__1_\.mux_right_ipin_2\.sky130_fd_sc_hd__mux2_1_9_X
*216 cby_0__8_\.cby_0__1_\.mux_right_ipin_3\.sky130_fd_sc_hd__mux2_1_0_X
*217 cby_0__8_\.cby_0__1_\.mux_right_ipin_3\.sky130_fd_sc_hd__mux2_1_10_X
*218 cby_0__8_\.cby_0__1_\.mux_right_ipin_3\.sky130_fd_sc_hd__mux2_1_11_X
*219 cby_0__8_\.cby_0__1_\.mux_right_ipin_3\.sky130_fd_sc_hd__mux2_1_1_X
*220 cby_0__8_\.cby_0__1_\.mux_right_ipin_3\.sky130_fd_sc_hd__mux2_1_2_X
*221 cby_0__8_\.cby_0__1_\.mux_right_ipin_3\.sky130_fd_sc_hd__mux2_1_3_X
*222 cby_0__8_\.cby_0__1_\.mux_right_ipin_3\.sky130_fd_sc_hd__mux2_1_4_X
*223 cby_0__8_\.cby_0__1_\.mux_right_ipin_3\.sky130_fd_sc_hd__mux2_1_5_X
*224 cby_0__8_\.cby_0__1_\.mux_right_ipin_3\.sky130_fd_sc_hd__mux2_1_6_X
*225 cby_0__8_\.cby_0__1_\.mux_right_ipin_3\.sky130_fd_sc_hd__mux2_1_7_X
*226 cby_0__8_\.cby_0__1_\.mux_right_ipin_3\.sky130_fd_sc_hd__mux2_1_8_X
*227 cby_0__8_\.cby_0__1_\.mux_right_ipin_3\.sky130_fd_sc_hd__mux2_1_9_X
*228 cby_0__8_\.grid_io_left_left_0__1_\.logical_tile_io_mode_io__0\.ccff_tail
*229 cby_0__8_\.grid_io_left_left_0__1_\.logical_tile_io_mode_io__0\.gfpga_pad_io_soc_dir
*230 cby_0__8_\.grid_io_left_left_0__1_\.logical_tile_io_mode_io__0\.logical_tile_io_mode_physical__iopad_0\.io_0_\.SOC_DIR_N
*231 cby_0__8_\.grid_io_left_left_0__1_\.logical_tile_io_mode_io__1\.ccff_tail
*232 cby_0__8_\.grid_io_left_left_0__1_\.logical_tile_io_mode_io__1\.gfpga_pad_io_soc_dir
*233 cby_0__8_\.grid_io_left_left_0__1_\.logical_tile_io_mode_io__1\.logical_tile_io_mode_physical__iopad_0\.io_0_\.SOC_DIR_N
*234 cby_0__8_\.grid_io_left_left_0__1_\.logical_tile_io_mode_io__2\.ccff_tail
*235 cby_0__8_\.grid_io_left_left_0__1_\.logical_tile_io_mode_io__2\.gfpga_pad_io_soc_dir
*236 cby_0__8_\.grid_io_left_left_0__1_\.logical_tile_io_mode_io__2\.logical_tile_io_mode_physical__iopad_0\.io_0_\.SOC_DIR_N
*237 cby_0__8_\.grid_io_left_left_0__1_\.logical_tile_io_mode_io__3\.gfpga_pad_io_soc_dir
*238 cby_0__8_\.grid_io_left_left_0__1_\.logical_tile_io_mode_io__3\.logical_tile_io_mode_physical__iopad_0\.io_0_\.SOC_DIR_N
*239 clknet_0_prog_clk
*240 clknet_4_0_0_prog_clk
*241 clknet_4_10_0_prog_clk
*242 clknet_4_11_0_prog_clk
*243 clknet_4_12_0_prog_clk
*244 clknet_4_13_0_prog_clk
*245 clknet_4_14_0_prog_clk
*246 clknet_4_15_0_prog_clk
*247 clknet_4_1_0_prog_clk
*248 clknet_4_2_0_prog_clk
*249 clknet_4_3_0_prog_clk
*250 clknet_4_4_0_prog_clk
*251 clknet_4_5_0_prog_clk
*252 clknet_4_6_0_prog_clk
*253 clknet_4_7_0_prog_clk
*254 clknet_4_8_0_prog_clk
*255 clknet_4_9_0_prog_clk
*256 net1
*257 net10
*258 net100
*259 net101
*260 net102
*261 net103
*262 net104
*263 net105
*264 net106
*265 net107
*266 net108
*267 net109
*268 net11
*269 net110
*270 net111
*271 net112
*272 net113
*273 net114
*274 net115
*275 net116
*276 net117
*277 net118
*278 net119
*279 net12
*280 net120
*281 net121
*282 net122
*283 net123
*284 net124
*285 net125
*286 net126
*287 net127
*288 net128
*289 net129
*290 net13
*291 net130
*292 net131
*293 net132
*294 net133
*295 net134
*296 net135
*297 net136
*298 net137
*299 net138
*300 net139
*301 net14
*302 net140
*303 net141
*304 net142
*305 net143
*306 net144
*307 net145
*308 net146
*309 net147
*310 net148
*311 net149
*312 net15
*313 net150
*314 net151
*315 net152
*316 net153
*317 net154
*318 net155
*319 net156
*320 net157
*321 net158
*322 net159
*323 net16
*324 net160
*325 net161
*326 net162
*327 net163
*328 net164
*329 net165
*330 net166
*331 net167
*332 net168
*333 net169
*334 net17
*335 net170
*336 net171
*337 net172
*338 net173
*339 net174
*340 net175
*341 net176
*342 net177
*343 net178
*344 net179
*345 net18
*346 net180
*347 net181
*348 net182
*349 net183
*350 net184
*351 net185
*352 net186
*353 net187
*354 net188
*355 net189
*356 net19
*357 net190
*358 net191
*359 net192
*360 net193
*361 net194
*362 net195
*363 net196
*364 net197
*365 net198
*366 net199
*367 net2
*368 net20
*369 net200
*370 net201
*371 net202
*372 net203
*373 net204
*374 net205
*375 net206
*376 net207
*377 net208
*378 net209
*379 net21
*380 net210
*381 net211
*382 net212
*383 net213
*384 net214
*385 net215
*386 net216
*387 net217
*388 net218
*389 net219
*390 net22
*391 net220
*392 net221
*393 net222
*394 net223
*395 net224
*396 net225
*397 net226
*398 net227
*399 net228
*400 net229
*401 net23
*402 net230
*403 net231
*404 net232
*405 net233
*406 net234
*407 net235
*408 net236
*409 net237
*410 net238
*411 net239
*412 net24
*413 net240
*414 net241
*415 net242
*416 net243
*417 net244
*418 net245
*419 net246
*420 net247
*421 net248
*422 net249
*423 net25
*424 net250
*425 net251
*426 net252
*427 net253
*428 net254
*429 net255
*430 net256
*431 net257
*432 net258
*433 net259
*434 net26
*435 net260
*436 net261
*437 net262
*438 net263
*439 net264
*440 net265
*441 net266
*442 net267
*443 net268
*444 net269
*445 net27
*446 net270
*447 net271
*448 net272
*449 net273
*450 net274
*451 net275
*452 net276
*453 net277
*454 net278
*455 net279
*456 net28
*457 net280
*458 net281
*459 net282
*460 net283
*461 net284
*462 net285
*463 net286
*464 net287
*465 net288
*466 net289
*467 net29
*468 net290
*469 net291
*470 net292
*471 net293
*472 net294
*473 net295
*474 net296
*475 net297
*476 net298
*477 net299
*478 net3
*479 net30
*480 net300
*481 net301
*482 net302
*483 net303
*484 net304
*485 net305
*486 net306
*487 net307
*488 net308
*489 net309
*490 net31
*491 net310
*492 net311
*493 net312
*494 net313
*495 net314
*496 net315
*497 net316
*498 net317
*499 net318
*500 net319
*501 net32
*502 net320
*503 net321
*504 net322
*505 net323
*506 net324
*507 net325
*508 net326
*509 net327
*510 net328
*511 net329
*512 net33
*513 net330
*514 net331
*515 net332
*516 net333
*517 net334
*518 net335
*519 net336
*520 net337
*521 net338
*522 net339
*523 net34
*524 net340
*525 net341
*526 net342
*527 net343
*528 net344
*529 net345
*530 net346
*531 net347
*532 net348
*533 net349
*534 net35
*535 net350
*536 net351
*537 net352
*538 net353
*539 net354
*540 net355
*541 net356
*542 net357
*543 net358
*544 net359
*545 net36
*546 net360
*547 net361
*548 net362
*549 net363
*550 net364
*551 net365
*552 net366
*553 net367
*554 net368
*555 net369
*556 net37
*557 net370
*558 net371
*559 net372
*560 net373
*561 net374
*562 net375
*563 net376
*564 net377
*565 net378
*566 net379
*567 net38
*568 net380
*569 net381
*570 net382
*571 net383
*572 net384
*573 net385
*574 net386
*575 net387
*576 net388
*577 net389
*578 net39
*579 net390
*580 net391
*581 net392
*582 net393
*583 net394
*584 net395
*585 net396
*586 net397
*587 net398
*588 net399
*589 net4
*590 net40
*591 net400
*592 net401
*593 net402
*594 net403
*595 net404
*596 net405
*597 net406
*598 net407
*599 net408
*600 net409
*601 net41
*602 net410
*603 net411
*604 net412
*605 net413
*606 net414
*607 net415
*608 net416
*609 net417
*610 net418
*611 net419
*612 net42
*613 net420
*614 net421
*615 net422
*616 net423
*617 net424
*618 net425
*619 net426
*620 net427
*621 net428
*622 net429
*623 net43
*624 net430
*625 net431
*626 net432
*627 net433
*628 net434
*629 net435
*630 net436
*631 net437
*632 net438
*633 net439
*634 net44
*635 net440
*636 net441
*637 net442
*638 net443
*639 net444
*640 net445
*641 net446
*642 net447
*643 net448
*644 net449
*645 net45
*646 net450
*647 net451
*648 net452
*649 net453
*650 net454
*651 net455
*652 net456
*653 net457
*654 net458
*655 net459
*656 net46
*657 net460
*658 net461
*659 net462
*660 net463
*661 net464
*662 net465
*663 net466
*664 net467
*665 net468
*666 net469
*667 net47
*668 net470
*669 net471
*670 net472
*671 net473
*672 net474
*673 net475
*674 net476
*675 net477
*676 net478
*677 net479
*678 net48
*679 net480
*680 net481
*681 net482
*682 net483
*683 net484
*684 net485
*685 net486
*686 net487
*687 net488
*688 net489
*689 net49
*690 net490
*691 net491
*692 net492
*693 net493
*694 net494
*695 net495
*696 net496
*697 net497
*698 net498
*699 net499
*700 net5
*701 net50
*702 net500
*703 net501
*704 net502
*705 net503
*706 net504
*707 net505
*708 net506
*709 net507
*710 net508
*711 net509
*712 net51
*713 net510
*714 net511
*715 net512
*716 net513
*717 net514
*718 net515
*719 net516
*720 net517
*721 net518
*722 net519
*723 net52
*724 net520
*725 net521
*726 net522
*727 net523
*728 net524
*729 net525
*730 net526
*731 net527
*732 net528
*733 net529
*734 net53
*735 net530
*736 net531
*737 net532
*738 net533
*739 net534
*740 net535
*741 net536
*742 net537
*743 net538
*744 net539
*745 net54
*746 net540
*747 net541
*748 net542
*749 net543
*750 net544
*751 net545
*752 net546
*753 net547
*754 net548
*755 net549
*756 net55
*757 net550
*758 net551
*759 net552
*760 net56
*761 net57
*762 net58
*763 net59
*764 net6
*765 net60
*766 net61
*767 net62
*768 net63
*769 net64
*770 net65
*771 net66
*772 net67
*773 net68
*774 net69
*775 net7
*776 net70
*777 net71
*778 net72
*779 net73
*780 net74
*781 net75
*782 net76
*783 net77
*784 net78
*785 net79
*786 net8
*787 net80
*788 net81
*789 net82
*790 net83
*791 net84
*792 net85
*793 net86
*794 net87
*795 net88
*796 net89
*797 net9
*798 net90
*799 net91
*800 net92
*801 net93
*802 net94
*803 net95
*804 net96
*805 net97
*806 net98
*807 net99
*808 sb_0__8_\.mem_bottom_track_1\.ccff_head
*809 sb_0__8_\.mem_bottom_track_1\.ccff_tail
*810 sb_0__8_\.mem_bottom_track_1\.mem_out\[0\]
*811 sb_0__8_\.mem_bottom_track_11\.ccff_head
*812 sb_0__8_\.mem_bottom_track_11\.ccff_tail
*813 sb_0__8_\.mem_bottom_track_11\.mem_out\[0\]
*814 sb_0__8_\.mem_bottom_track_13\.ccff_tail
*815 sb_0__8_\.mem_bottom_track_13\.mem_out\[0\]
*816 sb_0__8_\.mem_bottom_track_15\.ccff_tail
*817 sb_0__8_\.mem_bottom_track_15\.mem_out\[0\]
*818 sb_0__8_\.mem_bottom_track_17\.ccff_tail
*819 sb_0__8_\.mem_bottom_track_17\.mem_out\[0\]
*820 sb_0__8_\.mem_bottom_track_19\.ccff_tail
*821 sb_0__8_\.mem_bottom_track_19\.mem_out\[0\]
*822 sb_0__8_\.mem_bottom_track_29\.ccff_tail
*823 sb_0__8_\.mem_bottom_track_29\.mem_out\[0\]
*824 sb_0__8_\.mem_bottom_track_3\.ccff_tail
*825 sb_0__8_\.mem_bottom_track_3\.mem_out\[0\]
*826 sb_0__8_\.mem_bottom_track_31\.ccff_tail
*827 sb_0__8_\.mem_bottom_track_31\.mem_out\[0\]
*828 sb_0__8_\.mem_bottom_track_33\.ccff_tail
*829 sb_0__8_\.mem_bottom_track_33\.mem_out\[0\]
*830 sb_0__8_\.mem_bottom_track_35\.ccff_tail
*831 sb_0__8_\.mem_bottom_track_35\.mem_out\[0\]
*832 sb_0__8_\.mem_bottom_track_45\.ccff_tail
*833 sb_0__8_\.mem_bottom_track_45\.mem_out\[0\]
*834 sb_0__8_\.mem_bottom_track_47\.ccff_tail
*835 sb_0__8_\.mem_bottom_track_47\.mem_out\[0\]
*836 sb_0__8_\.mem_bottom_track_49\.ccff_tail
*837 sb_0__8_\.mem_bottom_track_49\.mem_out\[0\]
*838 sb_0__8_\.mem_bottom_track_5\.ccff_tail
*839 sb_0__8_\.mem_bottom_track_5\.mem_out\[0\]
*840 sb_0__8_\.mem_bottom_track_51\.mem_out\[0\]
*841 sb_0__8_\.mem_bottom_track_7\.ccff_tail
*842 sb_0__8_\.mem_bottom_track_7\.mem_out\[0\]
*843 sb_0__8_\.mem_bottom_track_9\.mem_out\[0\]
*844 sb_0__8_\.mem_right_track_0\.ccff_tail
*845 sb_0__8_\.mem_right_track_0\.mem_out\[0\]
*846 sb_0__8_\.mem_right_track_0\.mem_out\[1\]
*847 sb_0__8_\.mem_right_track_10\.ccff_head
*848 sb_0__8_\.mem_right_track_10\.ccff_tail
*849 sb_0__8_\.mem_right_track_10\.mem_out\[0\]
*850 sb_0__8_\.mem_right_track_10\.mem_out\[1\]
*851 sb_0__8_\.mem_right_track_12\.ccff_tail
*852 sb_0__8_\.mem_right_track_12\.mem_out\[0\]
*853 sb_0__8_\.mem_right_track_14\.ccff_tail
*854 sb_0__8_\.mem_right_track_14\.mem_out\[0\]
*855 sb_0__8_\.mem_right_track_16\.ccff_tail
*856 sb_0__8_\.mem_right_track_16\.mem_out\[0\]
*857 sb_0__8_\.mem_right_track_18\.ccff_tail
*858 sb_0__8_\.mem_right_track_18\.mem_out\[0\]
*859 sb_0__8_\.mem_right_track_2\.ccff_tail
*860 sb_0__8_\.mem_right_track_2\.mem_out\[0\]
*861 sb_0__8_\.mem_right_track_2\.mem_out\[1\]
*862 sb_0__8_\.mem_right_track_20\.ccff_tail
*863 sb_0__8_\.mem_right_track_20\.mem_out\[0\]
*864 sb_0__8_\.mem_right_track_22\.ccff_tail
*865 sb_0__8_\.mem_right_track_22\.mem_out\[0\]
*866 sb_0__8_\.mem_right_track_24\.ccff_tail
*867 sb_0__8_\.mem_right_track_24\.mem_out\[0\]
*868 sb_0__8_\.mem_right_track_26\.ccff_tail
*869 sb_0__8_\.mem_right_track_26\.mem_out\[0\]
*870 sb_0__8_\.mem_right_track_28\.ccff_tail
*871 sb_0__8_\.mem_right_track_28\.mem_out\[0\]
*872 sb_0__8_\.mem_right_track_30\.ccff_tail
*873 sb_0__8_\.mem_right_track_30\.mem_out\[0\]
*874 sb_0__8_\.mem_right_track_32\.ccff_tail
*875 sb_0__8_\.mem_right_track_32\.mem_out\[0\]
*876 sb_0__8_\.mem_right_track_34\.ccff_tail
*877 sb_0__8_\.mem_right_track_34\.mem_out\[0\]
*878 sb_0__8_\.mem_right_track_36\.ccff_tail
*879 sb_0__8_\.mem_right_track_36\.mem_out\[0\]
*880 sb_0__8_\.mem_right_track_38\.ccff_tail
*881 sb_0__8_\.mem_right_track_38\.mem_out\[0\]
*882 sb_0__8_\.mem_right_track_4\.ccff_tail
*883 sb_0__8_\.mem_right_track_4\.mem_out\[0\]
*884 sb_0__8_\.mem_right_track_4\.mem_out\[1\]
*885 sb_0__8_\.mem_right_track_40\.ccff_tail
*886 sb_0__8_\.mem_right_track_40\.mem_out\[0\]
*887 sb_0__8_\.mem_right_track_42\.ccff_tail
*888 sb_0__8_\.mem_right_track_42\.mem_out\[0\]
*889 sb_0__8_\.mem_right_track_44\.ccff_tail
*890 sb_0__8_\.mem_right_track_44\.mem_out\[0\]
*891 sb_0__8_\.mem_right_track_46\.ccff_tail
*892 sb_0__8_\.mem_right_track_46\.mem_out\[0\]
*893 sb_0__8_\.mem_right_track_48\.ccff_tail
*894 sb_0__8_\.mem_right_track_48\.mem_out\[0\]
*895 sb_0__8_\.mem_right_track_50\.ccff_tail
*896 sb_0__8_\.mem_right_track_50\.mem_out\[0\]
*897 sb_0__8_\.mem_right_track_52\.ccff_tail
*898 sb_0__8_\.mem_right_track_52\.mem_out\[0\]
*899 sb_0__8_\.mem_right_track_54\.ccff_tail
*900 sb_0__8_\.mem_right_track_54\.mem_out\[0\]
*901 sb_0__8_\.mem_right_track_56\.ccff_tail
*902 sb_0__8_\.mem_right_track_56\.mem_out\[0\]
*903 sb_0__8_\.mem_right_track_58\.mem_out\[0\]
*904 sb_0__8_\.mem_right_track_6\.ccff_tail
*905 sb_0__8_\.mem_right_track_6\.mem_out\[0\]
*906 sb_0__8_\.mem_right_track_6\.mem_out\[1\]
*907 sb_0__8_\.mem_right_track_8\.mem_out\[0\]
*908 sb_0__8_\.mem_right_track_8\.mem_out\[1\]
*909 sb_0__8_\.mux_bottom_track_1\.out
*910 sb_0__8_\.mux_bottom_track_1\.sky130_fd_sc_hd__mux2_1_0_X
*911 sb_0__8_\.mux_bottom_track_1\.sky130_fd_sc_hd__mux2_1_1_X
*912 sb_0__8_\.mux_bottom_track_1\.sky130_fd_sc_hd__mux2_1_2_X
*913 sb_0__8_\.mux_bottom_track_11\.out
*914 sb_0__8_\.mux_bottom_track_11\.sky130_fd_sc_hd__mux2_1_0_X
*915 sb_0__8_\.mux_bottom_track_11\.sky130_fd_sc_hd__mux2_1_1_X
*916 sb_0__8_\.mux_bottom_track_13\.out
*917 sb_0__8_\.mux_bottom_track_13\.sky130_fd_sc_hd__mux2_1_0_X
*918 sb_0__8_\.mux_bottom_track_13\.sky130_fd_sc_hd__mux2_1_1_X
*919 sb_0__8_\.mux_bottom_track_15\.out
*920 sb_0__8_\.mux_bottom_track_15\.sky130_fd_sc_hd__mux2_1_0_X
*921 sb_0__8_\.mux_bottom_track_15\.sky130_fd_sc_hd__mux2_1_1_X
*922 sb_0__8_\.mux_bottom_track_17\.out
*923 sb_0__8_\.mux_bottom_track_17\.sky130_fd_sc_hd__mux2_1_0_X
*924 sb_0__8_\.mux_bottom_track_17\.sky130_fd_sc_hd__mux2_1_1_X
*925 sb_0__8_\.mux_bottom_track_19\.out
*926 sb_0__8_\.mux_bottom_track_19\.sky130_fd_sc_hd__mux2_1_0_X
*927 sb_0__8_\.mux_bottom_track_19\.sky130_fd_sc_hd__mux2_1_1_X
*928 sb_0__8_\.mux_bottom_track_29\.out
*929 sb_0__8_\.mux_bottom_track_29\.sky130_fd_sc_hd__mux2_1_0_X
*930 sb_0__8_\.mux_bottom_track_29\.sky130_fd_sc_hd__mux2_1_1_X
*931 sb_0__8_\.mux_bottom_track_3\.out
*932 sb_0__8_\.mux_bottom_track_3\.sky130_fd_sc_hd__mux2_1_0_X
*933 sb_0__8_\.mux_bottom_track_3\.sky130_fd_sc_hd__mux2_1_1_X
*934 sb_0__8_\.mux_bottom_track_31\.out
*935 sb_0__8_\.mux_bottom_track_31\.sky130_fd_sc_hd__mux2_1_0_X
*936 sb_0__8_\.mux_bottom_track_31\.sky130_fd_sc_hd__mux2_1_1_X
*937 sb_0__8_\.mux_bottom_track_33\.out
*938 sb_0__8_\.mux_bottom_track_33\.sky130_fd_sc_hd__mux2_1_0_X
*939 sb_0__8_\.mux_bottom_track_33\.sky130_fd_sc_hd__mux2_1_1_X
*940 sb_0__8_\.mux_bottom_track_35\.out
*941 sb_0__8_\.mux_bottom_track_35\.sky130_fd_sc_hd__mux2_1_0_X
*942 sb_0__8_\.mux_bottom_track_35\.sky130_fd_sc_hd__mux2_1_1_X
*943 sb_0__8_\.mux_bottom_track_45\.out
*944 sb_0__8_\.mux_bottom_track_45\.sky130_fd_sc_hd__mux2_1_0_X
*945 sb_0__8_\.mux_bottom_track_45\.sky130_fd_sc_hd__mux2_1_1_X
*946 sb_0__8_\.mux_bottom_track_47\.out
*947 sb_0__8_\.mux_bottom_track_47\.sky130_fd_sc_hd__mux2_1_0_X
*948 sb_0__8_\.mux_bottom_track_47\.sky130_fd_sc_hd__mux2_1_1_X
*949 sb_0__8_\.mux_bottom_track_49\.out
*950 sb_0__8_\.mux_bottom_track_49\.sky130_fd_sc_hd__mux2_1_0_X
*951 sb_0__8_\.mux_bottom_track_49\.sky130_fd_sc_hd__mux2_1_1_X
*952 sb_0__8_\.mux_bottom_track_5\.out
*953 sb_0__8_\.mux_bottom_track_5\.sky130_fd_sc_hd__mux2_1_0_X
*954 sb_0__8_\.mux_bottom_track_5\.sky130_fd_sc_hd__mux2_1_1_X
*955 sb_0__8_\.mux_bottom_track_51\.out
*956 sb_0__8_\.mux_bottom_track_51\.sky130_fd_sc_hd__mux2_1_0_X
*957 sb_0__8_\.mux_bottom_track_51\.sky130_fd_sc_hd__mux2_1_1_X
*958 sb_0__8_\.mux_bottom_track_7\.out
*959 sb_0__8_\.mux_bottom_track_7\.sky130_fd_sc_hd__mux2_1_0_X
*960 sb_0__8_\.mux_bottom_track_7\.sky130_fd_sc_hd__mux2_1_1_X
*961 sb_0__8_\.mux_bottom_track_7\.sky130_fd_sc_hd__mux2_1_2_X
*962 sb_0__8_\.mux_bottom_track_9\.out
*963 sb_0__8_\.mux_bottom_track_9\.sky130_fd_sc_hd__mux2_1_0_X
*964 sb_0__8_\.mux_bottom_track_9\.sky130_fd_sc_hd__mux2_1_1_X
*965 sb_0__8_\.mux_right_track_0\.out
*966 sb_0__8_\.mux_right_track_0\.sky130_fd_sc_hd__mux2_1_0_X
*967 sb_0__8_\.mux_right_track_0\.sky130_fd_sc_hd__mux2_1_1_X
*968 sb_0__8_\.mux_right_track_0\.sky130_fd_sc_hd__mux2_1_2_X
*969 sb_0__8_\.mux_right_track_0\.sky130_fd_sc_hd__mux2_1_3_X
*970 sb_0__8_\.mux_right_track_0\.sky130_fd_sc_hd__mux2_1_4_X
*971 sb_0__8_\.mux_right_track_10\.out
*972 sb_0__8_\.mux_right_track_10\.sky130_fd_sc_hd__mux2_1_0_X
*973 sb_0__8_\.mux_right_track_10\.sky130_fd_sc_hd__mux2_1_1_X
*974 sb_0__8_\.mux_right_track_10\.sky130_fd_sc_hd__mux2_1_2_X
*975 sb_0__8_\.mux_right_track_10\.sky130_fd_sc_hd__mux2_1_3_X
*976 sb_0__8_\.mux_right_track_10\.sky130_fd_sc_hd__mux2_1_4_X
*977 sb_0__8_\.mux_right_track_12\.out
*978 sb_0__8_\.mux_right_track_12\.sky130_fd_sc_hd__mux2_1_0_X
*979 sb_0__8_\.mux_right_track_12\.sky130_fd_sc_hd__mux2_1_1_X
*980 sb_0__8_\.mux_right_track_12\.sky130_fd_sc_hd__mux2_1_2_X
*981 sb_0__8_\.mux_right_track_14\.out
*982 sb_0__8_\.mux_right_track_14\.sky130_fd_sc_hd__mux2_1_0_X
*983 sb_0__8_\.mux_right_track_14\.sky130_fd_sc_hd__mux2_1_1_X
*984 sb_0__8_\.mux_right_track_14\.sky130_fd_sc_hd__mux2_1_2_X
*985 sb_0__8_\.mux_right_track_16\.out
*986 sb_0__8_\.mux_right_track_16\.sky130_fd_sc_hd__mux2_1_0_X
*987 sb_0__8_\.mux_right_track_16\.sky130_fd_sc_hd__mux2_1_1_X
*988 sb_0__8_\.mux_right_track_16\.sky130_fd_sc_hd__mux2_1_2_X
*989 sb_0__8_\.mux_right_track_18\.out
*990 sb_0__8_\.mux_right_track_18\.sky130_fd_sc_hd__mux2_1_0_X
*991 sb_0__8_\.mux_right_track_18\.sky130_fd_sc_hd__mux2_1_1_X
*992 sb_0__8_\.mux_right_track_2\.out
*993 sb_0__8_\.mux_right_track_2\.sky130_fd_sc_hd__mux2_1_0_X
*994 sb_0__8_\.mux_right_track_2\.sky130_fd_sc_hd__mux2_1_1_X
*995 sb_0__8_\.mux_right_track_2\.sky130_fd_sc_hd__mux2_1_2_X
*996 sb_0__8_\.mux_right_track_2\.sky130_fd_sc_hd__mux2_1_3_X
*997 sb_0__8_\.mux_right_track_2\.sky130_fd_sc_hd__mux2_1_4_X
*998 sb_0__8_\.mux_right_track_20\.out
*999 sb_0__8_\.mux_right_track_20\.sky130_fd_sc_hd__mux2_1_0_X
*1000 sb_0__8_\.mux_right_track_20\.sky130_fd_sc_hd__mux2_1_1_X
*1001 sb_0__8_\.mux_right_track_22\.out
*1002 sb_0__8_\.mux_right_track_22\.sky130_fd_sc_hd__mux2_1_0_X
*1003 sb_0__8_\.mux_right_track_22\.sky130_fd_sc_hd__mux2_1_1_X
*1004 sb_0__8_\.mux_right_track_24\.out
*1005 sb_0__8_\.mux_right_track_24\.sky130_fd_sc_hd__mux2_1_0_X
*1006 sb_0__8_\.mux_right_track_24\.sky130_fd_sc_hd__mux2_1_1_X
*1007 sb_0__8_\.mux_right_track_26\.out
*1008 sb_0__8_\.mux_right_track_26\.sky130_fd_sc_hd__mux2_1_0_X
*1009 sb_0__8_\.mux_right_track_26\.sky130_fd_sc_hd__mux2_1_1_X
*1010 sb_0__8_\.mux_right_track_28\.out
*1011 sb_0__8_\.mux_right_track_28\.sky130_fd_sc_hd__mux2_1_0_X
*1012 sb_0__8_\.mux_right_track_28\.sky130_fd_sc_hd__mux2_1_1_X
*1013 sb_0__8_\.mux_right_track_28\.sky130_fd_sc_hd__mux2_1_2_X
*1014 sb_0__8_\.mux_right_track_30\.out
*1015 sb_0__8_\.mux_right_track_30\.sky130_fd_sc_hd__mux2_1_0_X
*1016 sb_0__8_\.mux_right_track_30\.sky130_fd_sc_hd__mux2_1_1_X
*1017 sb_0__8_\.mux_right_track_30\.sky130_fd_sc_hd__mux2_1_2_X
*1018 sb_0__8_\.mux_right_track_32\.out
*1019 sb_0__8_\.mux_right_track_32\.sky130_fd_sc_hd__mux2_1_0_X
*1020 sb_0__8_\.mux_right_track_32\.sky130_fd_sc_hd__mux2_1_1_X
*1021 sb_0__8_\.mux_right_track_32\.sky130_fd_sc_hd__mux2_1_2_X
*1022 sb_0__8_\.mux_right_track_34\.out
*1023 sb_0__8_\.mux_right_track_34\.sky130_fd_sc_hd__mux2_1_0_X
*1024 sb_0__8_\.mux_right_track_34\.sky130_fd_sc_hd__mux2_1_1_X
*1025 sb_0__8_\.mux_right_track_34\.sky130_fd_sc_hd__mux2_1_2_X
*1026 sb_0__8_\.mux_right_track_36\.out
*1027 sb_0__8_\.mux_right_track_36\.sky130_fd_sc_hd__mux2_1_0_X
*1028 sb_0__8_\.mux_right_track_36\.sky130_fd_sc_hd__mux2_1_1_X
*1029 sb_0__8_\.mux_right_track_38\.out
*1030 sb_0__8_\.mux_right_track_38\.sky130_fd_sc_hd__mux2_1_0_X
*1031 sb_0__8_\.mux_right_track_38\.sky130_fd_sc_hd__mux2_1_1_X
*1032 sb_0__8_\.mux_right_track_4\.out
*1033 sb_0__8_\.mux_right_track_4\.sky130_fd_sc_hd__mux2_1_0_X
*1034 sb_0__8_\.mux_right_track_4\.sky130_fd_sc_hd__mux2_1_1_X
*1035 sb_0__8_\.mux_right_track_4\.sky130_fd_sc_hd__mux2_1_2_X
*1036 sb_0__8_\.mux_right_track_4\.sky130_fd_sc_hd__mux2_1_3_X
*1037 sb_0__8_\.mux_right_track_4\.sky130_fd_sc_hd__mux2_1_4_X
*1038 sb_0__8_\.mux_right_track_40\.out
*1039 sb_0__8_\.mux_right_track_40\.sky130_fd_sc_hd__mux2_1_0_X
*1040 sb_0__8_\.mux_right_track_40\.sky130_fd_sc_hd__mux2_1_1_X
*1041 sb_0__8_\.mux_right_track_42\.out
*1042 sb_0__8_\.mux_right_track_42\.sky130_fd_sc_hd__mux2_1_0_X
*1043 sb_0__8_\.mux_right_track_42\.sky130_fd_sc_hd__mux2_1_1_X
*1044 sb_0__8_\.mux_right_track_44\.out