*SPEF "ieee 1481-1999"
*DESIGN "top_left_tile"
*DATE "11:11:11 Fri 11 11, 1111"
*VENDOR "OpenRCX"
*PROGRAM "Parallel Extraction"
*VERSION "1.0"
*DESIGN_FLOW "NAME_SCOPE LOCAL" "PIN_CAP NONE"
*DIVIDER /
*DELIMITER :
*BUS_DELIMITER []
*T_UNIT 1 NS
*C_UNIT 1 PF
*R_UNIT 1 OHM
*L_UNIT 1 HENRY

*NAME_MAP
*3 ccff_head
*4 ccff_head_0
*5 ccff_tail
*6 ccff_tail_0
*7 chanx_right_in[0]
*8 chanx_right_in[10]
*9 chanx_right_in[11]
*10 chanx_right_in[12]
*11 chanx_right_in[13]
*12 chanx_right_in[14]
*13 chanx_right_in[15]
*14 chanx_right_in[16]
*15 chanx_right_in[17]
*16 chanx_right_in[18]
*17 chanx_right_in[19]
*18 chanx_right_in[1]
*19 chanx_right_in[20]
*20 chanx_right_in[21]
*21 chanx_right_in[22]
*22 chanx_right_in[23]
*23 chanx_right_in[24]
*24 chanx_right_in[25]
*25 chanx_right_in[26]
*26 chanx_right_in[27]
*27 chanx_right_in[28]
*28 chanx_right_in[29]
*29 chanx_right_in[2]
*30 chanx_right_in[3]
*31 chanx_right_in[4]
*32 chanx_right_in[5]
*33 chanx_right_in[6]
*34 chanx_right_in[7]
*35 chanx_right_in[8]
*36 chanx_right_in[9]
*37 chanx_right_out[0]
*38 chanx_right_out[10]
*39 chanx_right_out[11]
*40 chanx_right_out[12]
*41 chanx_right_out[13]
*42 chanx_right_out[14]
*43 chanx_right_out[15]
*44 chanx_right_out[16]
*45 chanx_right_out[17]
*46 chanx_right_out[18]
*47 chanx_right_out[19]
*48 chanx_right_out[1]
*49 chanx_right_out[20]
*50 chanx_right_out[21]
*51 chanx_right_out[22]
*52 chanx_right_out[23]
*53 chanx_right_out[24]
*54 chanx_right_out[25]
*55 chanx_right_out[26]
*56 chanx_right_out[27]
*57 chanx_right_out[28]
*58 chanx_right_out[29]
*59 chanx_right_out[2]
*60 chanx_right_out[3]
*61 chanx_right_out[4]
*62 chanx_right_out[5]
*63 chanx_right_out[6]
*64 chanx_right_out[7]
*65 chanx_right_out[8]
*66 chanx_right_out[9]
*67 chany_bottom_in_0[0]
*68 chany_bottom_in_0[10]
*69 chany_bottom_in_0[11]
*70 chany_bottom_in_0[12]
*71 chany_bottom_in_0[13]
*72 chany_bottom_in_0[14]
*73 chany_bottom_in_0[15]
*74 chany_bottom_in_0[16]
*75 chany_bottom_in_0[17]
*76 chany_bottom_in_0[18]
*77 chany_bottom_in_0[19]
*78 chany_bottom_in_0[1]
*79 chany_bottom_in_0[20]
*80 chany_bottom_in_0[21]
*81 chany_bottom_in_0[22]
*82 chany_bottom_in_0[23]
*83 chany_bottom_in_0[24]
*84 chany_bottom_in_0[25]
*85 chany_bottom_in_0[26]
*86 chany_bottom_in_0[27]
*87 chany_bottom_in_0[28]
*88 chany_bottom_in_0[29]
*89 chany_bottom_in_0[2]
*90 chany_bottom_in_0[3]
*91 chany_bottom_in_0[4]
*92 chany_bottom_in_0[5]
*93 chany_bottom_in_0[6]
*94 chany_bottom_in_0[7]
*95 chany_bottom_in_0[8]
*96 chany_bottom_in_0[9]
*97 chany_bottom_out_0[0]
*98 chany_bottom_out_0[10]
*99 chany_bottom_out_0[11]
*100 chany_bottom_out_0[12]
*101 chany_bottom_out_0[13]
*102 chany_bottom_out_0[14]
*103 chany_bottom_out_0[15]
*104 chany_bottom_out_0[16]
*105 chany_bottom_out_0[17]
*106 chany_bottom_out_0[18]
*107 chany_bottom_out_0[19]
*108 chany_bottom_out_0[1]
*109 chany_bottom_out_0[20]
*110 chany_bottom_out_0[21]
*111 chany_bottom_out_0[22]
*112 chany_bottom_out_0[23]
*113 chany_bottom_out_0[24]
*114 chany_bottom_out_0[25]
*115 chany_bottom_out_0[26]
*116 chany_bottom_out_0[27]
*117 chany_bottom_out_0[28]
*118 chany_bottom_out_0[29]
*119 chany_bottom_out_0[2]
*120 chany_bottom_out_0[3]
*121 chany_bottom_out_0[4]
*122 chany_bottom_out_0[5]
*123 chany_bottom_out_0[6]
*124 chany_bottom_out_0[7]
*125 chany_bottom_out_0[8]
*126 chany_bottom_out_0[9]
*127 gfpga_pad_io_soc_dir[0]
*128 gfpga_pad_io_soc_dir[1]
*129 gfpga_pad_io_soc_dir[2]
*130 gfpga_pad_io_soc_dir[3]
*131 gfpga_pad_io_soc_in[0]
*132 gfpga_pad_io_soc_in[1]
*133 gfpga_pad_io_soc_in[2]
*134 gfpga_pad_io_soc_in[3]
*135 gfpga_pad_io_soc_out[0]
*136 gfpga_pad_io_soc_out[1]
*137 gfpga_pad_io_soc_out[2]
*138 gfpga_pad_io_soc_out[3]
*139 isol_n
*140 prog_clk
*141 prog_reset
*142 reset
*143 right_bottom_grid_top_width_0_height_0_subtile_0__pin_O_0_
*144 right_bottom_grid_top_width_0_height_0_subtile_0__pin_O_1_
*145 right_bottom_grid_top_width_0_height_0_subtile_0__pin_O_2_
*146 right_bottom_grid_top_width_0_height_0_subtile_0__pin_O_3_
*147 right_bottom_grid_top_width_0_height_0_subtile_0__pin_O_4_
*148 right_bottom_grid_top_width_0_height_0_subtile_0__pin_O_5_
*149 right_bottom_grid_top_width_0_height_0_subtile_0__pin_O_6_
*150 right_bottom_grid_top_width_0_height_0_subtile_0__pin_O_7_
*151 right_top_grid_bottom_width_0_height_0_subtile_0__pin_inpad_0_
*152 right_top_grid_bottom_width_0_height_0_subtile_1__pin_inpad_0_
*153 right_top_grid_bottom_width_0_height_0_subtile_2__pin_inpad_0_
*154 right_top_grid_bottom_width_0_height_0_subtile_3__pin_inpad_0_
*155 right_width_0_height_0_subtile_0__pin_inpad_0_
*156 right_width_0_height_0_subtile_1__pin_inpad_0_
*157 right_width_0_height_0_subtile_2__pin_inpad_0_
*158 right_width_0_height_0_subtile_3__pin_inpad_0_
*159 test_enable
*160 cby_0__8_\.cby_0__1_\.ccff_tail
*161 cby_0__8_\.cby_0__1_\.left_grid_right_width_0_height_0_subtile_0__pin_outpad_0_
*162 cby_0__8_\.cby_0__1_\.left_grid_right_width_0_height_0_subtile_1__pin_outpad_0_
*163 cby_0__8_\.cby_0__1_\.left_grid_right_width_0_height_0_subtile_2__pin_outpad_0_
*164 cby_0__8_\.cby_0__1_\.left_grid_right_width_0_height_0_subtile_3__pin_outpad_0_
*165 cby_0__8_\.cby_0__1_\.mem_right_ipin_0\.ccff_tail
*166 cby_0__8_\.cby_0__1_\.mem_right_ipin_0\.mem_out\[0\]
*167 cby_0__8_\.cby_0__1_\.mem_right_ipin_0\.mem_out\[1\]
*168 cby_0__8_\.cby_0__1_\.mem_right_ipin_0\.mem_out\[2\]
*169 cby_0__8_\.cby_0__1_\.mem_right_ipin_1\.ccff_tail
*170 cby_0__8_\.cby_0__1_\.mem_right_ipin_1\.mem_out\[0\]
*171 cby_0__8_\.cby_0__1_\.mem_right_ipin_1\.mem_out\[1\]
*172 cby_0__8_\.cby_0__1_\.mem_right_ipin_1\.mem_out\[2\]
*173 cby_0__8_\.cby_0__1_\.mem_right_ipin_2\.ccff_tail
*174 cby_0__8_\.cby_0__1_\.mem_right_ipin_2\.mem_out\[0\]
*175 cby_0__8_\.cby_0__1_\.mem_right_ipin_2\.mem_out\[1\]
*176 cby_0__8_\.cby_0__1_\.mem_right_ipin_2\.mem_out\[2\]
*177 cby_0__8_\.cby_0__1_\.mem_right_ipin_3\.mem_out\[0\]
*178 cby_0__8_\.cby_0__1_\.mem_right_ipin_3\.mem_out\[1\]
*179 cby_0__8_\.cby_0__1_\.mem_right_ipin_3\.mem_out\[2\]
*180 cby_0__8_\.cby_0__1_\.mux_right_ipin_0\.sky130_fd_sc_hd__mux2_1_0_X
*181 cby_0__8_\.cby_0__1_\.mux_right_ipin_0\.sky130_fd_sc_hd__mux2_1_10_X
*182 cby_0__8_\.cby_0__1_\.mux_right_ipin_0\.sky130_fd_sc_hd__mux2_1_11_X
*183 cby_0__8_\.cby_0__1_\.mux_right_ipin_0\.sky130_fd_sc_hd__mux2_1_1_X
*184 cby_0__8_\.cby_0__1_\.mux_right_ipin_0\.sky130_fd_sc_hd__mux2_1_2_X
*185 cby_0__8_\.cby_0__1_\.mux_right_ipin_0\.sky130_fd_sc_hd__mux2_1_3_X
*186 cby_0__8_\.cby_0__1_\.mux_right_ipin_0\.sky130_fd_sc_hd__mux2_1_4_X
*187 cby_0__8_\.cby_0__1_\.mux_right_ipin_0\.sky130_fd_sc_hd__mux2_1_5_X
*188 cby_0__8_\.cby_0__1_\.mux_right_ipin_0\.sky130_fd_sc_hd__mux2_1_6_X
*189 cby_0__8_\.cby_0__1_\.mux_right_ipin_0\.sky130_fd_sc_hd__mux2_1_7_X
*190 cby_0__8_\.cby_0__1_\.mux_right_ipin_0\.sky130_fd_sc_hd__mux2_1_8_X
*191 cby_0__8_\.cby_0__1_\.mux_right_ipin_0\.sky130_fd_sc_hd__mux2_1_9_X
*192 cby_0__8_\.cby_0__1_\.mux_right_ipin_1\.sky130_fd_sc_hd__mux2_1_0_X
*193 cby_0__8_\.cby_0__1_\.mux_right_ipin_1\.sky130_fd_sc_hd__mux2_1_10_X
*194 cby_0__8_\.cby_0__1_\.mux_right_ipin_1\.sky130_fd_sc_hd__mux2_1_11_X
*195 cby_0__8_\.cby_0__1_\.mux_right_ipin_1\.sky130_fd_sc_hd__mux2_1_1_X
*196 cby_0__8_\.cby_0__1_\.mux_right_ipin_1\.sky130_fd_sc_hd__mux2_1_2_X
*197 cby_0__8_\.cby_0__1_\.mux_right_ipin_1\.sky130_fd_sc_hd__mux2_1_3_X
*198 cby_0__8_\.cby_0__1_\.mux_right_ipin_1\.sky130_fd_sc_hd__mux2_1_4_X
*199 cby_0__8_\.cby_0__1_\.mux_right_ipin_1\.sky130_fd_sc_hd__mux2_1_5_X
*200 cby_0__8_\.cby_0__1_\.mux_right_ipin_1\.sky130_fd_sc_hd__mux2_1_6_X
*201 cby_0__8_\.cby_0__1_\.mux_right_ipin_1\.sky130_fd_sc_hd__mux2_1_7_X
*202 cby_0__8_\.cby_0__1_\.mux_right_ipin_1\.sky130_fd_sc_hd__mux2_1_8_X
*203 cby_0__8_\.cby_0__1_\.mux_right_ipin_1\.sky130_fd_sc_hd__mux2_1_9_X
*204 cby_0__8_\.cby_0__1_\.mux_right_ipin_2\.sky130_fd_sc_hd__mux2_1_0_X
*205 cby_0__8_\.cby_0__1_\.mux_right_ipin_2\.sky130_fd_sc_hd__mux2_1_10_X
*206 cby_0__8_\.cby_0__1_\.mux_right_ipin_2\.sky130_fd_sc_hd__mux2_1_11_X
*207 cby_0__8_\.cby_0__1_\.mux_right_ipin_2\.sky130_fd_sc_hd__mux2_1_1_X
*208 cby_0__8_\.cby_0__1_\.mux_right_ipin_2\.sky130_fd_sc_hd__mux2_1_2_X
*209 cby_0__8_\.cby_0__1_\.mux_right_ipin_2\.sky130_fd_sc_hd__mux2_1_3_X
*210 cby_0__8_\.cby_0__1_\.mux_right_ipin_2\.sky130_fd_sc_hd__mux2_1_4_X
*211 cby_0__8_\.cby_0__1_\.mux_right_ipin_2\.sky130_fd_sc_hd__mux2_1_5_X
*212 cby_0__8_\.cby_0__1_\.mux_right_ipin_2\.sky130_fd_sc_hd__mux2_1_6_X
*213 cby_0__8_\.cby_0__1_\.mux_right_ipin_2\.sky130_fd_sc_hd__mux2_1_7_X
*214 cby_0__8_\.cby_0__1_\.mux_right_ipin_2\.sky130_fd_sc_hd__mux2_1_8_X
*215 cby_0__8_\.cby_0__1_\.mux_right_ipin_2\.sky130_fd_sc_hd__mux2_1_9_X
*216 cby_0__8_\.cby_0__1_\.mux_right_ipin_3\.sky130_fd_sc_hd__mux2_1_0_X
*217 cby_0__8_\.cby_0__1_\.mux_right_ipin_3\.sky130_fd_sc_hd__mux2_1_10_X
*218 cby_0__8_\.cby_0__1_\.mux_right_ipin_3\.sky130_fd_sc_hd__mux2_1_11_X
*219 cby_0__8_\.cby_0__1_\.mux_right_ipin_3\.sky130_fd_sc_hd__mux2_1_1_X
*220 cby_0__8_\.cby_0__1_\.mux_right_ipin_3\.sky130_fd_sc_hd__mux2_1_2_X
*221 cby_0__8_\.cby_0__1_\.mux_right_ipin_3\.sky130_fd_sc_hd__mux2_1_3_X
*222 cby_0__8_\.cby_0__1_\.mux_right_ipin_3\.sky130_fd_sc_hd__mux2_1_4_X
*223 cby_0__8_\.cby_0__1_\.mux_right_ipin_3\.sky130_fd_sc_hd__mux2_1_5_X
*224 cby_0__8_\.cby_0__1_\.mux_right_ipin_3\.sky130_fd_sc_hd__mux2_1_6_X
*225 cby_0__8_\.cby_0__1_\.mux_right_ipin_3\.sky130_fd_sc_hd__mux2_1_7_X
*226 cby_0__8_\.cby_0__1_\.mux_right_ipin_3\.sky130_fd_sc_hd__mux2_1_8_X
*227 cby_0__8_\.cby_0__1_\.mux_right_ipin_3\.sky130_fd_sc_hd__mux2_1_9_X
*228 cby_0__8_\.grid_io_left_left_0__1_\.logical_tile_io_mode_io__0\.ccff_tail
*229 cby_0__8_\.grid_io_left_left_0__1_\.logical_tile_io_mode_io__0\.gfpga_pad_io_soc_dir
*230 cby_0__8_\.grid_io_left_left_0__1_\.logical_tile_io_mode_io__0\.logical_tile_io_mode_physical__iopad_0\.io_0_\.SOC_DIR_N
*231 cby_0__8_\.grid_io_left_left_0__1_\.logical_tile_io_mode_io__1\.ccff_tail
*232 cby_0__8_\.grid_io_left_left_0__1_\.logical_tile_io_mode_io__1\.gfpga_pad_io_soc_dir
*233 cby_0__8_\.grid_io_left_left_0__1_\.logical_tile_io_mode_io__1\.logical_tile_io_mode_physical__iopad_0\.io_0_\.SOC_DIR_N
*234 cby_0__8_\.grid_io_left_left_0__1_\.logical_tile_io_mode_io__2\.ccff_tail
*235 cby_0__8_\.grid_io_left_left_0__1_\.logical_tile_io_mode_io__2\.gfpga_pad_io_soc_dir
*236 cby_0__8_\.grid_io_left_left_0__1_\.logical_tile_io_mode_io__2\.logical_tile_io_mode_physical__iopad_0\.io_0_\.SOC_DIR_N
*237 cby_0__8_\.grid_io_left_left_0__1_\.logical_tile_io_mode_io__3\.gfpga_pad_io_soc_dir
*238 cby_0__8_\.grid_io_left_left_0__1_\.logical_tile_io_mode_io__3\.logical_tile_io_mode_physical__iopad_0\.io_0_\.SOC_DIR_N
*239 clknet_0_prog_clk
*240 clknet_4_0_0_prog_clk
*241 clknet_4_10_0_prog_clk
*242 clknet_4_11_0_prog_clk
*243 clknet_4_12_0_prog_clk
*244 clknet_4_13_0_prog_clk
*245 clknet_4_14_0_prog_clk
*246 clknet_4_15_0_prog_clk
*247 clknet_4_1_0_prog_clk
*248 clknet_4_2_0_prog_clk
*249 clknet_4_3_0_prog_clk
*250 clknet_4_4_0_prog_clk
*251 clknet_4_5_0_prog_clk
*252 clknet_4_6_0_prog_clk
*253 clknet_4_7_0_prog_clk
*254 clknet_4_8_0_prog_clk
*255 clknet_4_9_0_prog_clk
*256 net1
*257 net10
*258 net100
*259 net101
*260 net102
*261 net103
*262 net104
*263 net105
*264 net106
*265 net107
*266 net108
*267 net109
*268 net11
*269 net110
*270 net111
*271 net112
*272 net113
*273 net114
*274 net115
*275 net116
*276 net117
*277 net118
*278 net119
*279 net12
*280 net120
*281 net121
*282 net122
*283 net123
*284 net124
*285 net125
*286 net126
*287 net127
*288 net128
*289 net129
*290 net13
*291 net130
*292 net131
*293 net132
*294 net133
*295 net134
*296 net135
*297 net136
*298 net137
*299 net138
*300 net139
*301 net14
*302 net140
*303 net141
*304 net142
*305 net143
*306 net144
*307 net145
*308 net146
*309 net147
*310 net148
*311 net149
*312 net15
*313 net150
*314 net151
*315 net152
*316 net153
*317 net154
*318 net155
*319 net156
*320 net157
*321 net158
*322 net159
*323 net16
*324 net160
*325 net161
*326 net162
*327 net163
*328 net164
*329 net165
*330 net166
*331 net167
*332 net168
*333 net169
*334 net17
*335 net170
*336 net171
*337 net172
*338 net173
*339 net174
*340 net175
*341 net176
*342 net177
*343 net178
*344 net179
*345 net18
*346 net180
*347 net181
*348 net182
*349 net183
*350 net184
*351 net185
*352 net186
*353 net187
*354 net188
*355 net189
*356 net19
*357 net190
*358 net191
*359 net192
*360 net193
*361 net194
*362 net195
*363 net196
*364 net197
*365 net198
*366 net199
*367 net2
*368 net20
*369 net200
*370 net201
*371 net202
*372 net203
*373 net204
*374 net205
*375 net206
*376 net207
*377 net208
*378 net209
*379 net21
*380 net210
*381 net211
*382 net212
*383 net213
*384 net214
*385 net215
*386 net216
*387 net217
*388 net218
*389 net219
*390 net22
*391 net220
*392 net221
*393 net222
*394 net223
*395 net224
*396 net225
*397 net226
*398 net227
*399 net228
*400 net229
*401 net23
*402 net230
*403 net231
*404 net232
*405 net233
*406 net234
*407 net235
*408 net236
*409 net237
*410 net238
*411 net239
*412 net24
*413 net240
*414 net241
*415 net242
*416 net243
*417 net244
*418 net245
*419 net246
*420 net247
*421 net248
*422 net249
*423 net25
*424 net250
*425 net251
*426 net252
*427 net253
*428 net254
*429 net255
*430 net256
*431 net257
*432 net258
*433 net259
*434 net26
*435 net260
*436 net261
*437 net262
*438 net263
*439 net264
*440 net265
*441 net266
*442 net267
*443 net268
*444 net269
*445 net27
*446 net270
*447 net271
*448 net272
*449 net273
*450 net274
*451 net275
*452 net276
*453 net277
*454 net278
*455 net279
*456 net28
*457 net280
*458 net281
*459 net282
*460 net283
*461 net284
*462 net285
*463 net286
*464 net287
*465 net288
*466 net289
*467 net29
*468 net290
*469 net291
*470 net292
*471 net293
*472 net294
*473 net295
*474 net296
*475 net3
*476 net30
*477 net31
*478 net32
*479 net33
*480 net34
*481 net35
*482 net36
*483 net37
*484 net38
*485 net39
*486 net4
*487 net40
*488 net41
*489 net42
*490 net43
*491 net44
*492 net45
*493 net46
*494 net47
*495 net48
*496 net49
*497 net5
*498 net50
*499 net51
*500 net52
*501 net53
*502 net54
*503 net55
*504 net56
*505 net57
*506 net58
*507 net59
*508 net6
*509 net60
*510 net61
*511 net62
*512 net63
*513 net64
*514 net65
*515 net66
*516 net67
*517 net68
*518 net69
*519 net7
*520 net70
*521 net71
*522 net72
*523 net73
*524 net74
*525 net75
*526 net76
*527 net77
*528 net78
*529 net79
*530 net8
*531 net80
*532 net81
*533 net82
*534 net83
*535 net84
*536 net85
*537 net86
*538 net87
*539 net88
*540 net89
*541 net9
*542 net90
*543 net91
*544 net92
*545 net93
*546 net94
*547 net95
*548 net96
*549 net97
*550 net98
*551 net99
*552 sb_0__8_\.mem_bottom_track_1\.ccff_head
*553 sb_0__8_\.mem_bottom_track_1\.ccff_tail
*554 sb_0__8_\.mem_bottom_track_1\.mem_out\[0\]
*555 sb_0__8_\.mem_bottom_track_11\.ccff_head
*556 sb_0__8_\.mem_bottom_track_11\.ccff_tail
*557 sb_0__8_\.mem_bottom_track_11\.mem_out\[0\]
*558 sb_0__8_\.mem_bottom_track_13\.ccff_tail
*559 sb_0__8_\.mem_bottom_track_13\.mem_out\[0\]
*560 sb_0__8_\.mem_bottom_track_15\.ccff_tail
*561 sb_0__8_\.mem_bottom_track_15\.mem_out\[0\]
*562 sb_0__8_\.mem_bottom_track_17\.ccff_tail
*563 sb_0__8_\.mem_bottom_track_17\.mem_out\[0\]
*564 sb_0__8_\.mem_bottom_track_19\.ccff_tail
*565 sb_0__8_\.mem_bottom_track_19\.mem_out\[0\]
*566 sb_0__8_\.mem_bottom_track_29\.ccff_tail
*567 sb_0__8_\.mem_bottom_track_29\.mem_out\[0\]
*568 sb_0__8_\.mem_bottom_track_3\.ccff_tail
*569 sb_0__8_\.mem_bottom_track_3\.mem_out\[0\]
*570 sb_0__8_\.mem_bottom_track_31\.ccff_tail
*571 sb_0__8_\.mem_bottom_track_31\.mem_out\[0\]
*572 sb_0__8_\.mem_bottom_track_33\.ccff_tail
*573 sb_0__8_\.mem_bottom_track_33\.mem_out\[0\]
*574 sb_0__8_\.mem_bottom_track_35\.ccff_tail
*575 sb_0__8_\.mem_bottom_track_35\.mem_out\[0\]
*576 sb_0__8_\.mem_bottom_track_45\.ccff_tail
*577 sb_0__8_\.mem_bottom_track_45\.mem_out\[0\]
*578 sb_0__8_\.mem_bottom_track_47\.ccff_tail
*579 sb_0__8_\.mem_bottom_track_47\.mem_out\[0\]
*580 sb_0__8_\.mem_bottom_track_49\.ccff_tail
*581 sb_0__8_\.mem_bottom_track_49\.mem_out\[0\]
*582 sb_0__8_\.mem_bottom_track_5\.ccff_tail
*583 sb_0__8_\.mem_bottom_track_5\.mem_out\[0\]
*584 sb_0__8_\.mem_bottom_track_51\.mem_out\[0\]
*585 sb_0__8_\.mem_bottom_track_7\.ccff_tail
*586 sb_0__8_\.mem_bottom_track_7\.mem_out\[0\]
*587 sb_0__8_\.mem_bottom_track_9\.mem_out\[0\]
*588 sb_0__8_\.mem_right_track_0\.ccff_tail
*589 sb_0__8_\.mem_right_track_0\.mem_out\[0\]
*590 sb_0__8_\.mem_right_track_0\.mem_out\[1\]
*591 sb_0__8_\.mem_right_track_10\.ccff_head
*592 sb_0__8_\.mem_right_track_10\.ccff_tail
*593 sb_0__8_\.mem_right_track_10\.mem_out\[0\]
*594 sb_0__8_\.mem_right_track_10\.mem_out\[1\]
*595 sb_0__8_\.mem_right_track_12\.ccff_tail
*596 sb_0__8_\.mem_right_track_12\.mem_out\[0\]
*597 sb_0__8_\.mem_right_track_14\.ccff_tail
*598 sb_0__8_\.mem_right_track_14\.mem_out\[0\]
*599 sb_0__8_\.mem_right_track_16\.ccff_tail
*600 sb_0__8_\.mem_right_track_16\.mem_out\[0\]
*601 sb_0__8_\.mem_right_track_18\.ccff_tail
*602 sb_0__8_\.mem_right_track_18\.mem_out\[0\]
*603 sb_0__8_\.mem_right_track_2\.ccff_tail
*604 sb_0__8_\.mem_right_track_2\.mem_out\[0\]
*605 sb_0__8_\.mem_right_track_2\.mem_out\[1\]
*606 sb_0__8_\.mem_right_track_20\.ccff_tail
*607 sb_0__8_\.mem_right_track_20\.mem_out\[0\]
*608 sb_0__8_\.mem_right_track_22\.ccff_tail
*609 sb_0__8_\.mem_right_track_22\.mem_out\[0\]
*610 sb_0__8_\.mem_right_track_24\.ccff_tail
*611 sb_0__8_\.mem_right_track_24\.mem_out\[0\]
*612 sb_0__8_\.mem_right_track_26\.ccff_tail
*613 sb_0__8_\.mem_right_track_26\.mem_out\[0\]
*614 sb_0__8_\.mem_right_track_28\.ccff_tail
*615 sb_0__8_\.mem_right_track_28\.mem_out\[0\]
*616 sb_0__8_\.mem_right_track_30\.ccff_tail
*617 sb_0__8_\.mem_right_track_30\.mem_out\[0\]
*618 sb_0__8_\.mem_right_track_32\.ccff_tail
*619 sb_0__8_\.mem_right_track_32\.mem_out\[0\]
*620 sb_0__8_\.mem_right_track_34\.ccff_tail
*621 sb_0__8_\.mem_right_track_34\.mem_out\[0\]
*622 sb_0__8_\.mem_right_track_36\.ccff_tail
*623 sb_0__8_\.mem_right_track_36\.mem_out\[0\]
*624 sb_0__8_\.mem_right_track_38\.ccff_tail
*625 sb_0__8_\.mem_right_track_38\.mem_out\[0\]
*626 sb_0__8_\.mem_right_track_4\.ccff_tail
*627 sb_0__8_\.mem_right_track_4\.mem_out\[0\]
*628 sb_0__8_\.mem_right_track_4\.mem_out\[1\]
*629 sb_0__8_\.mem_right_track_40\.ccff_tail
*630 sb_0__8_\.mem_right_track_40\.mem_out\[0\]
*631 sb_0__8_\.mem_right_track_42\.ccff_tail
*632 sb_0__8_\.mem_right_track_42\.mem_out\[0\]
*633 sb_0__8_\.mem_right_track_44\.ccff_tail
*634 sb_0__8_\.mem_right_track_44\.mem_out\[0\]
*635 sb_0__8_\.mem_right_track_46\.ccff_tail
*636 sb_0__8_\.mem_right_track_46\.mem_out\[0\]
*637 sb_0__8_\.mem_right_track_48\.ccff_tail
*638 sb_0__8_\.mem_right_track_48\.mem_out\[0\]
*639 sb_0__8_\.mem_right_track_50\.ccff_tail
*640 sb_0__8_\.mem_right_track_50\.mem_out\[0\]
*641 sb_0__8_\.mem_right_track_52\.ccff_tail
*642 sb_0__8_\.mem_right_track_52\.mem_out\[0\]
*643 sb_0__8_\.mem_right_track_54\.ccff_tail
*644 sb_0__8_\.mem_right_track_54\.mem_out\[0\]
*645 sb_0__8_\.mem_right_track_56\.ccff_tail
*646 sb_0__8_\.mem_right_track_56\.mem_out\[0\]
*647 sb_0__8_\.mem_right_track_58\.mem_out\[0\]
*648 sb_0__8_\.mem_right_track_6\.ccff_tail
*649 sb_0__8_\.mem_right_track_6\.mem_out\[0\]
*650 sb_0__8_\.mem_right_track_6\.mem_out\[1\]
*651 sb_0__8_\.mem_right_track_8\.mem_out\[0\]
*652 sb_0__8_\.mem_right_track_8\.mem_out\[1\]
*653 sb_0__8_\.mux_bottom_track_1\.out
*654 sb_0__8_\.mux_bottom_track_1\.sky130_fd_sc_hd__mux2_1_0_X
*655 sb_0__8_\.mux_bottom_track_1\.sky130_fd_sc_hd__mux2_1_1_X
*656 sb_0__8_\.mux_bottom_track_1\.sky130_fd_sc_hd__mux2_1_2_X
*657 sb_0__8_\.mux_bottom_track_11\.out
*658 sb_0__8_\.mux_bottom_track_11\.sky130_fd_sc_hd__mux2_1_0_X
*659 sb_0__8_\.mux_bottom_track_11\.sky130_fd_sc_hd__mux2_1_1_X
*660 sb_0__8_\.mux_bottom_track_13\.out
*661 sb_0__8_\.mux_bottom_track_13\.sky130_fd_sc_hd__mux2_1_0_X
*662 sb_0__8_\.mux_bottom_track_13\.sky130_fd_sc_hd__mux2_1_1_X
*663 sb_0__8_\.mux_bottom_track_15\.out
*664 sb_0__8_\.mux_bottom_track_15\.sky130_fd_sc_hd__mux2_1_0_X
*665 sb_0__8_\.mux_bottom_track_15\.sky130_fd_sc_hd__mux2_1_1_X
*666 sb_0__8_\.mux_bottom_track_17\.out
*667 sb_0__8_\.mux_bottom_track_17\.sky130_fd_sc_hd__mux2_1_0_X
*668 sb_0__8_\.mux_bottom_track_17\.sky130_fd_sc_hd__mux2_1_1_X
*669 sb_0__8_\.mux_bottom_track_19\.out
*670 sb_0__8_\.mux_bottom_track_19\.sky130_fd_sc_hd__mux2_1_0_X
*671 sb_0__8_\.mux_bottom_track_19\.sky130_fd_sc_hd__mux2_1_1_X
*672 sb_0__8_\.mux_bottom_track_29\.out
*673 sb_0__8_\.mux_bottom_track_29\.sky130_fd_sc_hd__mux2_1_0_X
*674 sb_0__8_\.mux_bottom_track_29\.sky130_fd_sc_hd__mux2_1_1_X
*675 sb_0__8_\.mux_bottom_track_3\.out
*676 sb_0__8_\.mux_bottom_track_3\.sky130_fd_sc_hd__mux2_1_0_X
*677 sb_0__8_\.mux_bottom_track_3\.sky130_fd_sc_hd__mux2_1_1_X
*678 sb_0__8_\.mux_bottom_track_31\.out
*679 sb_0__8_\.mux_bottom_track_31\.sky130_fd_sc_hd__mux2_1_0_X
*680 sb_0__8_\.mux_bottom_track_31\.sky130_fd_sc_hd__mux2_1_1_X
*681 sb_0__8_\.mux_bottom_track_33\.out
*682 sb_0__8_\.mux_bottom_track_33\.sky130_fd_sc_hd__mux2_1_0_X
*683 sb_0__8_\.mux_bottom_track_33\.sky130_fd_sc_hd__mux2_1_1_X
*684 sb_0__8_\.mux_bottom_track_35\.out
*685 sb_0__8_\.mux_bottom_track_35\.sky130_fd_sc_hd__mux2_1_0_X
*686 sb_0__8_\.mux_bottom_track_35\.sky130_fd_sc_hd__mux2_1_1_X
*687 sb_0__8_\.mux_bottom_track_45\.out
*688 sb_0__8_\.mux_bottom_track_45\.sky130_fd_sc_hd__mux2_1_0_X
*689 sb_0__8_\.mux_bottom_track_45\.sky130_fd_sc_hd__mux2_1_1_X
*690 sb_0__8_\.mux_bottom_track_47\.out
*691 sb_0__8_\.mux_bottom_track_47\.sky130_fd_sc_hd__mux2_1_0_X
*692 sb_0__8_\.mux_bottom_track_47\.sky130_fd_sc_hd__mux2_1_1_X
*693 sb_0__8_\.mux_bottom_track_49\.out
*694 sb_0__8_\.mux_bottom_track_49\.sky130_fd_sc_hd__mux2_1_0_X
*695 sb_0__8_\.mux_bottom_track_49\.sky130_fd_sc_hd__mux2_1_1_X
*696 sb_0__8_\.mux_bottom_track_5\.out
*697 sb_0__8_\.mux_bottom_track_5\.sky130_fd_sc_hd__mux2_1_0_X
*698 sb_0__8_\.mux_bottom_track_5\.sky130_fd_sc_hd__mux2_1_1_X
*699 sb_0__8_\.mux_bottom_track_51\.out
*700 sb_0__8_\.mux_bottom_track_51\.sky130_fd_sc_hd__mux2_1_0_X
*701 sb_0__8_\.mux_bottom_track_51\.sky130_fd_sc_hd__mux2_1_1_X
*702 sb_0__8_\.mux_bottom_track_7\.out
*703 sb_0__8_\.mux_bottom_track_7\.sky130_fd_sc_hd__mux2_1_0_X
*704 sb_0__8_\.mux_bottom_track_7\.sky130_fd_sc_hd__mux2_1_1_X
*705 sb_0__8_\.mux_bottom_track_7\.sky130_fd_sc_hd__mux2_1_2_X
*706 sb_0__8_\.mux_bottom_track_9\.out
*707 sb_0__8_\.mux_bottom_track_9\.sky130_fd_sc_hd__mux2_1_0_X
*708 sb_0__8_\.mux_bottom_track_9\.sky130_fd_sc_hd__mux2_1_1_X
*709 sb_0__8_\.mux_right_track_0\.out
*710 sb_0__8_\.mux_right_track_0\.sky130_fd_sc_hd__mux2_1_0_X
*711 sb_0__8_\.mux_right_track_0\.sky130_fd_sc_hd__mux2_1_1_X
*712 sb_0__8_\.mux_right_track_0\.sky130_fd_sc_hd__mux2_1_2_X
*713 sb_0__8_\.mux_right_track_0\.sky130_fd_sc_hd__mux2_1_3_X
*714 sb_0__8_\.mux_right_track_0\.sky130_fd_sc_hd__mux2_1_4_X
*715 sb_0__8_\.mux_right_track_10\.out
*716 sb_0__8_\.mux_right_track_10\.sky130_fd_sc_hd__mux2_1_0_X
*717 sb_0__8_\.mux_right_track_10\.sky130_fd_sc_hd__mux2_1_1_X
*718 sb_0__8_\.mux_right_track_10\.sky130_fd_sc_hd__mux2_1_2_X
*719 sb_0__8_\.mux_right_track_10\.sky130_fd_sc_hd__mux2_1_3_X
*720 sb_0__8_\.mux_right_track_10\.sky130_fd_sc_hd__mux2_1_4_X
*721 sb_0__8_\.mux_right_track_12\.out
*722 sb_0__8_\.mux_right_track_12\.sky130_fd_sc_hd__mux2_1_0_X
*723 sb_0__8_\.mux_right_track_12\.sky130_fd_sc_hd__mux2_1_1_X
*724 sb_0__8_\.mux_right_track_12\.sky130_fd_sc_hd__mux2_1_2_X
*725 sb_0__8_\.mux_right_track_14\.out
*726 sb_0__8_\.mux_right_track_14\.sky130_fd_sc_hd__mux2_1_0_X
*727 sb_0__8_\.mux_right_track_14\.sky130_fd_sc_hd__mux2_1_1_X
*728 sb_0__8_\.mux_right_track_14\.sky130_fd_sc_hd__mux2_1_2_X
*729 sb_0__8_\.mux_right_track_16\.out
*730 sb_0__8_\.mux_right_track_16\.sky130_fd_sc_hd__mux2_1_0_X
*731 sb_0__8_\.mux_right_track_16\.sky130_fd_sc_hd__mux2_1_1_X
*732 sb_0__8_\.mux_right_track_16\.sky130_fd_sc_hd__mux2_1_2_X
*733 sb_0__8_\.mux_right_track_18\.out
*734 sb_0__8_\.mux_right_track_18\.sky130_fd_sc_hd__mux2_1_0_X
*735 sb_0__8_\.mux_right_track_18\.sky130_fd_sc_hd__mux2_1_1_X
*736 sb_0__8_\.mux_right_track_2\.out
*737 sb_0__8_\.mux_right_track_2\.sky130_fd_sc_hd__mux2_1_0_X
*738 sb_0__8_\.mux_right_track_2\.sky130_fd_sc_hd__mux2_1_1_X
*739 sb_0__8_\.mux_right_track_2\.sky130_fd_sc_hd__mux2_1_2_X
*740 sb_0__8_\.mux_right_track_2\.sky130_fd_sc_hd__mux2_1_3_X
*741 sb_0__8_\.mux_right_track_2\.sky130_fd_sc_hd__mux2_1_4_X
*742 sb_0__8_\.mux_right_track_20\.out
*743 sb_0__8_\.mux_right_track_20\.sky130_fd_sc_hd__mux2_1_0_X
*744 sb_0__8_\.mux_right_track_20\.sky130_fd_sc_hd__mux2_1_1_X
*745 sb_0__8_\.mux_right_track_22\.out
*746 sb_0__8_\.mux_right_track_22\.sky130_fd_sc_hd__mux2_1_0_X
*747 sb_0__8_\.mux_right_track_22\.sky130_fd_sc_hd__mux2_1_1_X
*748 sb_0__8_\.mux_right_track_24\.out
*749 sb_0__8_\.mux_right_track_24\.sky130_fd_sc_hd__mux2_1_0_X
*750 sb_0__8_\.mux_right_track_24\.sky130_fd_sc_hd__mux2_1_1_X
*751 sb_0__8_\.mux_right_track_26\.out
*752 sb_0__8_\.mux_right_track_26\.sky130_fd_sc_hd__mux2_1_0_X
*753 sb_0__8_\.mux_right_track_26\.sky130_fd_sc_hd__mux2_1_1_X
*754 sb_0__8_\.mux_right_track_28\.out
*755 sb_0__8_\.mux_right_track_28\.sky130_fd_sc_hd__mux2_1_0_X
*756 sb_0__8_\.mux_right_track_28\.sky130_fd_sc_hd__mux2_1_1_X
*757 sb_0__8_\.mux_right_track_28\.sky130_fd_sc_hd__mux2_1_2_X
*758 sb_0__8_\.mux_right_track_30\.out
*759 sb_0__8_\.mux_right_track_30\.sky130_fd_sc_hd__mux2_1_0_X
*760 sb_0__8_\.mux_right_track_30\.sky130_fd_sc_hd__mux2_1_1_X
*761 sb_0__8_\.mux_right_track_30\.sky130_fd_sc_hd__mux2_1_2_X
*762 sb_0__8_\.mux_right_track_32\.out
*763 sb_0__8_\.mux_right_track_32\.sky130_fd_sc_hd__mux2_1_0_X
*764 sb_0__8_\.mux_right_track_32\.sky130_fd_sc_hd__mux2_1_1_X
*765 sb_0__8_\.mux_right_track_32\.sky130_fd_sc_hd__mux2_1_2_X
*766 sb_0__8_\.mux_right_track_34\.out
*767 sb_0__8_\.mux_right_track_34\.sky130_fd_sc_hd__mux2_1_0_X
*768 sb_0__8_\.mux_right_track_34\.sky130_fd_sc_hd__mux2_1_1_X
*769 sb_0__8_\.mux_right_track_34\.sky130_fd_sc_hd__mux2_1_2_X
*770 sb_0__8_\.mux_right_track_36\.out
*771 sb_0__8_\.mux_right_track_36\.sky130_fd_sc_hd__mux2_1_0_X
*772 sb_0__8_\.mux_right_track_36\.sky130_fd_sc_hd__mux2_1_1_X
*773 sb_0__8_\.mux_right_track_38\.out
*774 sb_0__8_\.mux_right_track_38\.sky130_fd_sc_hd__mux2_1_0_X
*775 sb_0__8_\.mux_right_track_38\.sky130_fd_sc_hd__mux2_1_1_X
*776 sb_0__8_\.mux_right_track_4\.out
*777 sb_0__8_\.mux_right_track_4\.sky130_fd_sc_hd__mux2_1_0_X
*778 sb_0__8_\.mux_right_track_4\.sky130_fd_sc_hd__mux2_1_1_X
*779 sb_0__8_\.mux_right_track_4\.sky130_fd_sc_hd__mux2_1_2_X
*780 sb_0__8_\.mux_right_track_4\.sky130_fd_sc_hd__mux2_1_3_X
*781 sb_0__8_\.mux_right_track_4\.sky130_fd_sc_hd__mux2_1_4_X
*782 sb_0__8_\.mux_right_track_40\.out
*783 sb_0__8_\.mux_right_track_40\.sky130_fd_sc_hd__mux2_1_0_X
*784 sb_0__8_\.mux_right_track_40\.sky130_fd_sc_hd__mux2_1_1_X
*785 sb_0__8_\.mux_right_track_42\.out
*786 sb_0__8_\.mux_right_track_42\.sky130_fd_sc_hd__mux2_1_0_X
*787 sb_0__8_\.mux_right_track_42\.sky130_fd_sc_hd__mux2_1_1_X
*788 sb_0__8_\.mux_right_track_44\.out
*789 sb_0__8_\.mux_right_track_44\.sky130_fd_sc_hd__mux2_1_0_X
*790 sb_0__8_\.mux_right_track_44\.sky130_fd_sc_hd__mux2_1_1_X
*791 sb_0__8_\.mux_right_track_44\.sky130_fd_sc_hd__mux2_1_2_X
*792 sb_0__8_\.mux_right_track_46\.out
*793 sb_0__8_\.mux_right_track_46\.sky130_fd_sc_hd__mux2_1_0_X
*794 sb_0__8_\.mux_right_track_46\.sky130_fd_sc_hd__mux2_1_1_X
*795 sb_0__8_\.mux_right_track_46\.sky130_fd_sc_hd__mux2_1_2_X
*796 sb_0__8_\.mux_right_track_48\.out
*797 sb_0__8_\.mux_right_track_48\.sky130_fd_sc_hd__mux2_1_0_X
*798 sb_0__8_\.mux_right_track_48\.sky130_fd_sc_hd__mux2_1_1_X
*799 sb_0__8_\.mux_right_track_48\.sky130_fd_sc_hd__mux2_1_2_X
*800 sb_0__8_\.mux_right_track_50\.out
*801 sb_0__8_\.mux_right_track_50\.sky130_fd_sc_hd__mux2_1_0_X
*802 sb_0__8_\.mux_right_track_50\.sky130_fd_sc_hd__mux2_1_1_X
*803 sb_0__8_\.mux_right_track_52\.out
*804 sb_0__8_\.mux_right_track_52\.sky130_fd_sc_hd__mux2_1_0_X
*805 sb_0__8_\.mux_right_track_52\.sky130_fd_sc_hd__mux2_1_1_X
*806 sb_0__8_\.mux_right_track_54\.out
*807 sb_0__8_\.mux_right_track_54\.sky130_fd_sc_hd__mux2_1_0_X
*808 sb_0__8_\.mux_right_track_54\.sky130_fd_sc_hd__mux2_1_1_X
*809 sb_0__8_\.mux_right_track_56\.out
*810 sb_0__8_\.mux_right_track_56\.sky130_fd_sc_hd__mux2_1_0_X
*811 sb_0__8_\.mux_right_track_56\.sky130_fd_sc_hd__mux2_1_1_X
*812 sb_0__8_\.mux_right_track_58\.out
*813 sb_0__8_\.mux_right_track_58\.sky130_fd_sc_hd__mux2_1_0_X
*814 sb_0__8_\.mux_right_track_58\.sky130_fd_sc_hd__mux2_1_1_X
*815 sb_0__8_\.mux_right_track_58\.sky130_fd_sc_hd__mux2_1_2_X
*816 sb_0__8_\.mux_right_track_6\.out
*817 sb_0__8_\.mux_right_track_6\.sky130_fd_sc_hd__mux2_1_0_X
*818 sb_0__8_\.mux_right_track_6\.sky130_fd_sc_hd__mux2_1_1_X
*819 sb_0__8_\.mux_right_track_6\.sky130_fd_sc_hd__mux2_1_2_X
*820 sb_0__8_\.mux_right_track_6\.sky130_fd_sc_hd__mux2_1_3_X
*821 sb_0__8_\.mux_right_track_6\.sky130_fd_sc_hd__mux2_1_4_X
*822 sb_0__8_\.mux_right_track_8\.out
*823 sb_0__8_\.mux_right_track_8\.sky130_fd_sc_hd__mux2_1_0_X
*824 sb_0__8_\.mux_right_track_8\.sky130_fd_sc_hd__mux2_1_1_X
*825 sb_0__8_\.mux_right_track_8\.sky130_fd_sc_hd__mux2_1_2_X
*826 sb_0__8_\.mux_right_track_8\.sky130_fd_sc_hd__mux2_1_3_X
*827 sb_0__8_\.mux_right_track_8\.sky130_fd_sc_hd__mux2_1_4_X
*828 ANTENNA_1
*829 ANTENNA_2
*830 ANTENNA_3
*831 ANTENNA_4
*832 ANTENNA__134__A
*833 ANTENNA__135__A
*834 ANTENNA__136__A
*835 ANTENNA__137__A
*836 ANTENNA__138__A
*837 ANTENNA__139__A
*838 ANTENNA__142__A
*839 ANTENNA__143__A
*840 ANTENNA__144__A
*841 ANTENNA__145__A
*842 ANTENNA__150__A
*843 ANTENNA__151__A
*844 ANTENNA__152__A
*845 ANTENNA__153__A
*846 ANTENNA__154__A
*847 ANTENNA__158__A
*848 ANTENNA__162__A
*849 ANTENNA__163__A
*850 ANTENNA_cby_0__8_\.cby_0__1_\.mem_right_ipin_0\.sky130_fd_sc_hd__dfrtp_1_0__RESET_B
*851 ANTENNA_cby_0__8_\.cby_0__1_\.mem_right_ipin_0\.sky130_fd_sc_hd__dfrtp_1_1__D
*852 ANTENNA_cby_0__8_\.cby_0__1_\.mem_right_ipin_0\.sky130_fd_sc_hd__dfrtp_1_1__RESET_B
*853 ANTENNA_cby_0__8_\.cby_0__1_\.mem_right_ipin_0\.sky130_fd_sc_hd__dfrtp_1_2__RESET_B
*854 ANTENNA_cby_0__8_\.cby_0__1_\.mem_right_ipin_0\.sky130_fd_sc_hd__dfrtp_1_3__RESET_B