*SPEF "ieee 1481-1999"
*DESIGN "tile"
*DATE "11:11:11 Fri 11 11, 1111"
*VENDOR "OpenRCX"
*PROGRAM "Parallel Extraction"
*VERSION "1.0"
*DESIGN_FLOW "NAME_SCOPE LOCAL" "PIN_CAP NONE"
*DIVIDER /
*DELIMITER :
*BUS_DELIMITER []
*T_UNIT 1 NS
*C_UNIT 1 PF
*R_UNIT 1 OHM
*L_UNIT 1 HENRY

*NAME_MAP
*3 bottom_width_0_height_0_subtile_0__pin_cout_0_
*4 bottom_width_0_height_0_subtile_0__pin_reg_out_0_
*5 ccff_head_1
*6 ccff_head_2
*7 ccff_tail
*8 ccff_tail_0
*9 chanx_left_in[0]
*10 chanx_left_in[10]
*11 chanx_left_in[11]
*12 chanx_left_in[12]
*13 chanx_left_in[13]
*14 chanx_left_in[14]
*15 chanx_left_in[15]
*16 chanx_left_in[16]
*17 chanx_left_in[17]
*18 chanx_left_in[18]
*19 chanx_left_in[19]
*20 chanx_left_in[1]
*21 chanx_left_in[20]
*22 chanx_left_in[21]
*23 chanx_left_in[22]
*24 chanx_left_in[23]
*25 chanx_left_in[24]
*26 chanx_left_in[25]
*27 chanx_left_in[26]
*28 chanx_left_in[27]
*29 chanx_left_in[28]
*30 chanx_left_in[29]
*31 chanx_left_in[2]
*32 chanx_left_in[3]
*33 chanx_left_in[4]
*34 chanx_left_in[5]
*35 chanx_left_in[6]
*36 chanx_left_in[7]
*37 chanx_left_in[8]
*38 chanx_left_in[9]
*39 chanx_left_out[0]
*40 chanx_left_out[10]
*41 chanx_left_out[11]
*42 chanx_left_out[12]
*43 chanx_left_out[13]
*44 chanx_left_out[14]
*45 chanx_left_out[15]
*46 chanx_left_out[16]
*47 chanx_left_out[17]
*48 chanx_left_out[18]
*49 chanx_left_out[19]
*50 chanx_left_out[1]
*51 chanx_left_out[20]
*52 chanx_left_out[21]
*53 chanx_left_out[22]
*54 chanx_left_out[23]
*55 chanx_left_out[24]
*56 chanx_left_out[25]
*57 chanx_left_out[26]
*58 chanx_left_out[27]
*59 chanx_left_out[28]
*60 chanx_left_out[29]
*61 chanx_left_out[2]
*62 chanx_left_out[3]
*63 chanx_left_out[4]
*64 chanx_left_out[5]
*65 chanx_left_out[6]
*66 chanx_left_out[7]
*67 chanx_left_out[8]
*68 chanx_left_out[9]
*69 chanx_right_in_0[0]
*70 chanx_right_in_0[10]
*71 chanx_right_in_0[11]
*72 chanx_right_in_0[12]
*73 chanx_right_in_0[13]
*74 chanx_right_in_0[14]
*75 chanx_right_in_0[15]
*76 chanx_right_in_0[16]
*77 chanx_right_in_0[17]
*78 chanx_right_in_0[18]
*79 chanx_right_in_0[19]
*80 chanx_right_in_0[1]
*81 chanx_right_in_0[20]
*82 chanx_right_in_0[21]
*83 chanx_right_in_0[22]
*84 chanx_right_in_0[23]
*85 chanx_right_in_0[24]
*86 chanx_right_in_0[25]
*87 chanx_right_in_0[26]
*88 chanx_right_in_0[27]
*89 chanx_right_in_0[28]
*90 chanx_right_in_0[29]
*91 chanx_right_in_0[2]
*92 chanx_right_in_0[3]
*93 chanx_right_in_0[4]
*94 chanx_right_in_0[5]
*95 chanx_right_in_0[6]
*96 chanx_right_in_0[7]
*97 chanx_right_in_0[8]
*98 chanx_right_in_0[9]
*99 chanx_right_out_0[0]
*100 chanx_right_out_0[10]
*101 chanx_right_out_0[11]
*102 chanx_right_out_0[12]
*103 chanx_right_out_0[13]
*104 chanx_right_out_0[14]
*105 chanx_right_out_0[15]
*106 chanx_right_out_0[16]
*107 chanx_right_out_0[17]
*108 chanx_right_out_0[18]
*109 chanx_right_out_0[19]
*110 chanx_right_out_0[1]
*111 chanx_right_out_0[20]
*112 chanx_right_out_0[21]
*113 chanx_right_out_0[22]
*114 chanx_right_out_0[23]
*115 chanx_right_out_0[24]
*116 chanx_right_out_0[25]
*117 chanx_right_out_0[26]
*118 chanx_right_out_0[27]
*119 chanx_right_out_0[28]
*120 chanx_right_out_0[29]
*121 chanx_right_out_0[2]
*122 chanx_right_out_0[3]
*123 chanx_right_out_0[4]
*124 chanx_right_out_0[5]
*125 chanx_right_out_0[6]
*126 chanx_right_out_0[7]
*127 chanx_right_out_0[8]
*128 chanx_right_out_0[9]
*129 chany_bottom_in[0]
*130 chany_bottom_in[10]
*131 chany_bottom_in[11]
*132 chany_bottom_in[12]
*133 chany_bottom_in[13]
*134 chany_bottom_in[14]
*135 chany_bottom_in[15]
*136 chany_bottom_in[16]
*137 chany_bottom_in[17]
*138 chany_bottom_in[18]
*139 chany_bottom_in[19]
*140 chany_bottom_in[1]
*141 chany_bottom_in[20]
*142 chany_bottom_in[21]
*143 chany_bottom_in[22]
*144 chany_bottom_in[23]
*145 chany_bottom_in[24]
*146 chany_bottom_in[25]
*147 chany_bottom_in[26]
*148 chany_bottom_in[27]
*149 chany_bottom_in[28]
*150 chany_bottom_in[29]
*151 chany_bottom_in[2]
*152 chany_bottom_in[3]
*153 chany_bottom_in[4]
*154 chany_bottom_in[5]
*155 chany_bottom_in[6]
*156 chany_bottom_in[7]
*157 chany_bottom_in[8]
*158 chany_bottom_in[9]
*159 chany_bottom_out[0]
*160 chany_bottom_out[10]
*161 chany_bottom_out[11]
*162 chany_bottom_out[12]
*163 chany_bottom_out[13]
*164 chany_bottom_out[14]
*165 chany_bottom_out[15]
*166 chany_bottom_out[16]
*167 chany_bottom_out[17]
*168 chany_bottom_out[18]
*169 chany_bottom_out[19]
*170 chany_bottom_out[1]
*171 chany_bottom_out[20]
*172 chany_bottom_out[21]
*173 chany_bottom_out[22]
*174 chany_bottom_out[23]
*175 chany_bottom_out[24]
*176 chany_bottom_out[25]
*177 chany_bottom_out[26]
*178 chany_bottom_out[27]
*179 chany_bottom_out[28]
*180 chany_bottom_out[29]
*181 chany_bottom_out[2]
*182 chany_bottom_out[3]
*183 chany_bottom_out[4]
*184 chany_bottom_out[5]
*185 chany_bottom_out[6]
*186 chany_bottom_out[7]
*187 chany_bottom_out[8]
*188 chany_bottom_out[9]
*189 chany_top_in_0[0]
*190 chany_top_in_0[10]
*191 chany_top_in_0[11]
*192 chany_top_in_0[12]
*193 chany_top_in_0[13]
*194 chany_top_in_0[14]
*195 chany_top_in_0[15]
*196 chany_top_in_0[16]
*197 chany_top_in_0[17]
*198 chany_top_in_0[18]
*199 chany_top_in_0[19]
*200 chany_top_in_0[1]
*201 chany_top_in_0[20]
*202 chany_top_in_0[21]
*203 chany_top_in_0[22]
*204 chany_top_in_0[23]
*205 chany_top_in_0[24]
*206 chany_top_in_0[25]
*207 chany_top_in_0[26]
*208 chany_top_in_0[27]
*209 chany_top_in_0[28]
*210 chany_top_in_0[29]
*211 chany_top_in_0[2]
*212 chany_top_in_0[3]
*213 chany_top_in_0[4]
*214 chany_top_in_0[5]
*215 chany_top_in_0[6]
*216 chany_top_in_0[7]
*217 chany_top_in_0[8]
*218 chany_top_in_0[9]
*219 chany_top_out_0[0]
*220 chany_top_out_0[10]
*221 chany_top_out_0[11]
*222 chany_top_out_0[12]
*223 chany_top_out_0[13]
*224 chany_top_out_0[14]
*225 chany_top_out_0[15]
*226 chany_top_out_0[16]
*227 chany_top_out_0[17]
*228 chany_top_out_0[18]
*229 chany_top_out_0[19]
*230 chany_top_out_0[1]
*231 chany_top_out_0[20]
*232 chany_top_out_0[21]
*233 chany_top_out_0[22]
*234 chany_top_out_0[23]
*235 chany_top_out_0[24]
*236 chany_top_out_0[25]
*237 chany_top_out_0[26]
*238 chany_top_out_0[27]
*239 chany_top_out_0[28]
*240 chany_top_out_0[29]
*241 chany_top_out_0[2]
*242 chany_top_out_0[3]
*243 chany_top_out_0[4]
*244 chany_top_out_0[5]
*245 chany_top_out_0[6]
*246 chany_top_out_0[7]
*247 chany_top_out_0[8]
*248 chany_top_out_0[9]
*249 clk0
*250 prog_clk
*251 prog_reset_bottom_in
*252 prog_reset_bottom_out
*253 prog_reset_left_in
*254 prog_reset_right_out
*255 prog_reset_top_in
*256 prog_reset_top_out
*257 reset_bottom_in
*258 reset_bottom_out
*259 reset_left_out
*260 reset_right_in
*261 reset_top_in
*262 reset_top_out
*263 right_bottom_grid_top_width_0_height_0_subtile_0__pin_O_0_
*264 right_bottom_grid_top_width_0_height_0_subtile_0__pin_O_1_
*265 right_bottom_grid_top_width_0_height_0_subtile_0__pin_O_2_
*266 right_bottom_grid_top_width_0_height_0_subtile_0__pin_O_3_
*267 right_bottom_grid_top_width_0_height_0_subtile_0__pin_O_4_
*268 right_bottom_grid_top_width_0_height_0_subtile_0__pin_O_5_
*269 right_bottom_grid_top_width_0_height_0_subtile_0__pin_O_6_
*270 right_bottom_grid_top_width_0_height_0_subtile_0__pin_O_7_
*271 right_width_0_height_0_subtile_0__pin_O_10_
*272 right_width_0_height_0_subtile_0__pin_O_11_
*273 right_width_0_height_0_subtile_0__pin_O_12_
*274 right_width_0_height_0_subtile_0__pin_O_13_
*275 right_width_0_height_0_subtile_0__pin_O_14_
*276 right_width_0_height_0_subtile_0__pin_O_15_
*277 right_width_0_height_0_subtile_0__pin_O_8_
*278 right_width_0_height_0_subtile_0__pin_O_9_
*279 sc_in
*280 sc_out
*281 test_enable_bottom_in
*282 test_enable_bottom_out
*283 test_enable_left_out
*284 test_enable_right_in
*285 test_enable_top_in
*286 test_enable_top_out
*287 top_left_grid_right_width_0_height_0_subtile_0__pin_O_10_
*288 top_left_grid_right_width_0_height_0_subtile_0__pin_O_11_
*289 top_left_grid_right_width_0_height_0_subtile_0__pin_O_12_
*290 top_left_grid_right_width_0_height_0_subtile_0__pin_O_13_
*291 top_left_grid_right_width_0_height_0_subtile_0__pin_O_14_
*292 top_left_grid_right_width_0_height_0_subtile_0__pin_O_15_
*293 top_left_grid_right_width_0_height_0_subtile_0__pin_O_8_
*294 top_left_grid_right_width_0_height_0_subtile_0__pin_O_9_
*295 top_width_0_height_0_subtile_0__pin_O_0_
*296 top_width_0_height_0_subtile_0__pin_O_1_
*297 top_width_0_height_0_subtile_0__pin_O_2_
*298 top_width_0_height_0_subtile_0__pin_O_3_
*299 top_width_0_height_0_subtile_0__pin_O_4_
*300 top_width_0_height_0_subtile_0__pin_O_5_
*301 top_width_0_height_0_subtile_0__pin_O_6_
*302 top_width_0_height_0_subtile_0__pin_O_7_
*303 top_width_0_height_0_subtile_0__pin_cin_0_
*304 top_width_0_height_0_subtile_0__pin_reg_in_0_
*305 cbx_1__1_\.bottom_grid_top_width_0_height_0_subtile_0__pin_I0_0_
*306 cbx_1__1_\.bottom_grid_top_width_0_height_0_subtile_0__pin_I0_1_
*307 cbx_1__1_\.bottom_grid_top_width_0_height_0_subtile_0__pin_I0i_0_
*308 cbx_1__1_\.bottom_grid_top_width_0_height_0_subtile_0__pin_I0i_1_
*309 cbx_1__1_\.bottom_grid_top_width_0_height_0_subtile_0__pin_I1_0_
*310 cbx_1__1_\.bottom_grid_top_width_0_height_0_subtile_0__pin_I1_1_
*311 cbx_1__1_\.bottom_grid_top_width_0_height_0_subtile_0__pin_I1i_0_
*312 cbx_1__1_\.bottom_grid_top_width_0_height_0_subtile_0__pin_I1i_1_
*313 cbx_1__1_\.bottom_grid_top_width_0_height_0_subtile_0__pin_I2_0_
*314 cbx_1__1_\.bottom_grid_top_width_0_height_0_subtile_0__pin_I2_1_
*315 cbx_1__1_\.bottom_grid_top_width_0_height_0_subtile_0__pin_I2i_0_
*316 cbx_1__1_\.bottom_grid_top_width_0_height_0_subtile_0__pin_I2i_1_
*317 cbx_1__1_\.bottom_grid_top_width_0_height_0_subtile_0__pin_I3_0_
*318 cbx_1__1_\.bottom_grid_top_width_0_height_0_subtile_0__pin_I3_1_
*319 cbx_1__1_\.bottom_grid_top_width_0_height_0_subtile_0__pin_I3i_0_
*320 cbx_1__1_\.bottom_grid_top_width_0_height_0_subtile_0__pin_I3i_1_
*321 cbx_1__1_\.ccff_head
*322 cbx_1__1_\.mem_top_ipin_0\.ccff_tail
*323 cbx_1__1_\.mem_top_ipin_0\.mem_out\[0\]
*324 cbx_1__1_\.mem_top_ipin_0\.mem_out\[1\]
*325 cbx_1__1_\.mem_top_ipin_0\.mem_out\[2\]
*326 cbx_1__1_\.mem_top_ipin_1\.ccff_tail
*327 cbx_1__1_\.mem_top_ipin_1\.mem_out\[0\]
*328 cbx_1__1_\.mem_top_ipin_1\.mem_out\[1\]
*329 cbx_1__1_\.mem_top_ipin_1\.mem_out\[2\]
*330 cbx_1__1_\.mem_top_ipin_10\.ccff_head
*331 cbx_1__1_\.mem_top_ipin_10\.ccff_tail
*332 cbx_1__1_\.mem_top_ipin_10\.mem_out\[0\]
*333 cbx_1__1_\.mem_top_ipin_10\.mem_out\[1\]
*334 cbx_1__1_\.mem_top_ipin_10\.mem_out\[2\]
*335 cbx_1__1_\.mem_top_ipin_11\.ccff_tail
*336 cbx_1__1_\.mem_top_ipin_11\.mem_out\[0\]
*337 cbx_1__1_\.mem_top_ipin_11\.mem_out\[1\]
*338 cbx_1__1_\.mem_top_ipin_11\.mem_out\[2\]
*339 cbx_1__1_\.mem_top_ipin_12\.ccff_tail
*340 cbx_1__1_\.mem_top_ipin_12\.mem_out\[0\]
*341 cbx_1__1_\.mem_top_ipin_12\.mem_out\[1\]
*342 cbx_1__1_\.mem_top_ipin_12\.mem_out\[2\]
*343 cbx_1__1_\.mem_top_ipin_13\.ccff_tail
*344 cbx_1__1_\.mem_top_ipin_13\.mem_out\[0\]
*345 cbx_1__1_\.mem_top_ipin_13\.mem_out\[1\]
*346 cbx_1__1_\.mem_top_ipin_13\.mem_out\[2\]
*347 cbx_1__1_\.mem_top_ipin_14\.ccff_tail
*348 cbx_1__1_\.mem_top_ipin_14\.mem_out\[0\]
*349 cbx_1__1_\.mem_top_ipin_14\.mem_out\[1\]
*350 cbx_1__1_\.mem_top_ipin_14\.mem_out\[2\]
*351 cbx_1__1_\.mem_top_ipin_15\.mem_out\[0\]
*352 cbx_1__1_\.mem_top_ipin_15\.mem_out\[1\]
*353 cbx_1__1_\.mem_top_ipin_15\.mem_out\[2\]
*354 cbx_1__1_\.mem_top_ipin_2\.ccff_tail
*355 cbx_1__1_\.mem_top_ipin_2\.mem_out\[0\]
*356 cbx_1__1_\.mem_top_ipin_2\.mem_out\[1\]
*357 cbx_1__1_\.mem_top_ipin_2\.mem_out\[2\]
*358 cbx_1__1_\.mem_top_ipin_3\.ccff_tail
*359 cbx_1__1_\.mem_top_ipin_3\.mem_out\[0\]
*360 cbx_1__1_\.mem_top_ipin_3\.mem_out\[1\]
*361 cbx_1__1_\.mem_top_ipin_3\.mem_out\[2\]
*362 cbx_1__1_\.mem_top_ipin_4\.ccff_tail
*363 cbx_1__1_\.mem_top_ipin_4\.mem_out\[0\]
*364 cbx_1__1_\.mem_top_ipin_4\.mem_out\[1\]
*365 cbx_1__1_\.mem_top_ipin_4\.mem_out\[2\]
*366 cbx_1__1_\.mem_top_ipin_5\.ccff_tail
*367 cbx_1__1_\.mem_top_ipin_5\.mem_out\[0\]
*368 cbx_1__1_\.mem_top_ipin_5\.mem_out\[1\]
*369 cbx_1__1_\.mem_top_ipin_5\.mem_out\[2\]
*370 cbx_1__1_\.mem_top_ipin_6\.ccff_tail
*371 cbx_1__1_\.mem_top_ipin_6\.mem_out\[0\]
*372 cbx_1__1_\.mem_top_ipin_6\.mem_out\[1\]
*373 cbx_1__1_\.mem_top_ipin_6\.mem_out\[2\]
*374 cbx_1__1_\.mem_top_ipin_7\.ccff_tail
*375 cbx_1__1_\.mem_top_ipin_7\.mem_out\[0\]
*376 cbx_1__1_\.mem_top_ipin_7\.mem_out\[1\]
*377 cbx_1__1_\.mem_top_ipin_7\.mem_out\[2\]
*378 cbx_1__1_\.mem_top_ipin_8\.ccff_tail
*379 cbx_1__1_\.mem_top_ipin_8\.mem_out\[0\]
*380 cbx_1__1_\.mem_top_ipin_8\.mem_out\[1\]
*381 cbx_1__1_\.mem_top_ipin_8\.mem_out\[2\]
*382 cbx_1__1_\.mem_top_ipin_9\.mem_out\[0\]
*383 cbx_1__1_\.mem_top_ipin_9\.mem_out\[1\]
*384 cbx_1__1_\.mem_top_ipin_9\.mem_out\[2\]
*385 cbx_1__1_\.mux_top_ipin_0\.sky130_fd_sc_hd__mux2_1_0_X
*386 cbx_1__1_\.mux_top_ipin_0\.sky130_fd_sc_hd__mux2_1_10_X
*387 cbx_1__1_\.mux_top_ipin_0\.sky130_fd_sc_hd__mux2_1_11_X
*388 cbx_1__1_\.mux_top_ipin_0\.sky130_fd_sc_hd__mux2_1_1_X
*389 cbx_1__1_\.mux_top_ipin_0\.sky130_fd_sc_hd__mux2_1_2_X
*390 cbx_1__1_\.mux_top_ipin_0\.sky130_fd_sc_hd__mux2_1_3_X
*391 cbx_1__1_\.mux_top_ipin_0\.sky130_fd_sc_hd__mux2_1_4_X
*392 cbx_1__1_\.mux_top_ipin_0\.sky130_fd_sc_hd__mux2_1_5_X
*393 cbx_1__1_\.mux_top_ipin_0\.sky130_fd_sc_hd__mux2_1_6_X
*394 cbx_1__1_\.mux_top_ipin_0\.sky130_fd_sc_hd__mux2_1_7_X
*395 cbx_1__1_\.mux_top_ipin_0\.sky130_fd_sc_hd__mux2_1_8_X
*396 cbx_1__1_\.mux_top_ipin_0\.sky130_fd_sc_hd__mux2_1_9_X
*397 cbx_1__1_\.mux_top_ipin_1\.sky130_fd_sc_hd__mux2_1_0_X
*398 cbx_1__1_\.mux_top_ipin_1\.sky130_fd_sc_hd__mux2_1_1_X
*399 cbx_1__1_\.mux_top_ipin_1\.sky130_fd_sc_hd__mux2_1_2_X
*400 cbx_1__1_\.mux_top_ipin_1\.sky130_fd_sc_hd__mux2_1_3_X
*401 cbx_1__1_\.mux_top_ipin_1\.sky130_fd_sc_hd__mux2_1_4_X
*402 cbx_1__1_\.mux_top_ipin_1\.sky130_fd_sc_hd__mux2_1_5_X
*403 cbx_1__1_\.mux_top_ipin_1\.sky130_fd_sc_hd__mux2_1_6_X
*404 cbx_1__1_\.mux_top_ipin_1\.sky130_fd_sc_hd__mux2_1_7_X
*405 cbx_1__1_\.mux_top_ipin_1\.sky130_fd_sc_hd__mux2_1_8_X
*406 cbx_1__1_\.mux_top_ipin_1\.sky130_fd_sc_hd__mux2_1_9_X
*407 cbx_1__1_\.mux_top_ipin_10\.sky130_fd_sc_hd__mux2_1_0_X
*408 cbx_1__1_\.mux_top_ipin_10\.sky130_fd_sc_hd__mux2_1_10_X
*409 cbx_1__1_\.mux_top_ipin_10\.sky130_fd_sc_hd__mux2_1_11_X
*410 cbx_1__1_\.mux_top_ipin_10\.sky130_fd_sc_hd__mux2_1_1_X
*411 cbx_1__1_\.mux_top_ipin_10\.sky130_fd_sc_hd__mux2_1_2_X
*412 cbx_1__1_\.mux_top_ipin_10\.sky130_fd_sc_hd__mux2_1_3_X
*413 cbx_1__1_\.mux_top_ipin_10\.sky130_fd_sc_hd__mux2_1_4_X
*414 cbx_1__1_\.mux_top_ipin_10\.sky130_fd_sc_hd__mux2_1_5_X
*415 cbx_1__1_\.mux_top_ipin_10\.sky130_fd_sc_hd__mux2_1_6_X
*416 cbx_1__1_\.mux_top_ipin_10\.sky130_fd_sc_hd__mux2_1_7_X
*417 cbx_1__1_\.mux_top_ipin_10\.sky130_fd_sc_hd__mux2_1_8_X
*418 cbx_1__1_\.mux_top_ipin_10\.sky130_fd_sc_hd__mux2_1_9_X
*419 cbx_1__1_\.mux_top_ipin_11\.sky130_fd_sc_hd__mux2_1_0_X
*420 cbx_1__1_\.mux_top_ipin_11\.sky130_fd_sc_hd__mux2_1_1_X
*421 cbx_1__1_\.mux_top_ipin_11\.sky130_fd_sc_hd__mux2_1_2_X
*422 cbx_1__1_\.mux_top_ipin_11\.sky130_fd_sc_hd__mux2_1_3_X
*423 cbx_1__1_\.mux_top_ipin_11\.sky130_fd_sc_hd__mux2_1_4_X
*424 cbx_1__1_\.mux_top_ipin_11\.sky130_fd_sc_hd__mux2_1_5_X
*425 cbx_1__1_\.mux_top_ipin_11\.sky130_fd_sc_hd__mux2_1_6_X
*426 cbx_1__1_\.mux_top_ipin_11\.sky130_fd_sc_hd__mux2_1_7_X
*427 cbx_1__1_\.mux_top_ipin_11\.sky130_fd_sc_hd__mux2_1_8_X
*428 cbx_1__1_\.mux_top_ipin_11\.sky130_fd_sc_hd__mux2_1_9_X
*429 cbx_1__1_\.mux_top_ipin_12\.sky130_fd_sc_hd__mux2_1_0_X
*430 cbx_1__1_\.mux_top_ipin_12\.sky130_fd_sc_hd__mux2_1_10_X
*431 cbx_1__1_\.mux_top_ipin_12\.sky130_fd_sc_hd__mux2_1_11_X
*432 cbx_1__1_\.mux_top_ipin_12\.sky130_fd_sc_hd__mux2_1_1_X
*433 cbx_1__1_\.mux_top_ipin_12\.sky130_fd_sc_hd__mux2_1_2_X
*434 cbx_1__1_\.mux_top_ipin_12\.sky130_fd_sc_hd__mux2_1_3_X
*435 cbx_1__1_\.mux_top_ipin_12\.sky130_fd_sc_hd__mux2_1_4_X
*436 cbx_1__1_\.mux_top_ipin_12\.sky130_fd_sc_hd__mux2_1_5_X
*437 cbx_1__1_\.mux_top_ipin_12\.sky130_fd_sc_hd__mux2_1_6_X
*438 cbx_1__1_\.mux_top_ipin_12\.sky130_fd_sc_hd__mux2_1_7_X
*439 cbx_1__1_\.mux_top_ipin_12\.sky130_fd_sc_hd__mux2_1_8_X
*440 cbx_1__1_\.mux_top_ipin_12\.sky130_fd_sc_hd__mux2_1_9_X
*441 cbx_1__1_\.mux_top_ipin_13\.sky130_fd_sc_hd__mux2_1_0_X
*442 cbx_1__1_\.mux_top_ipin_13\.sky130_fd_sc_hd__mux2_1_1_X
*443 cbx_1__1_\.mux_top_ipin_13\.sky130_fd_sc_hd__mux2_1_2_X
*444 cbx_1__1_\.mux_top_ipin_13\.sky130_fd_sc_hd__mux2_1_3_X
*445 cbx_1__1_\.mux_top_ipin_13\.sky130_fd_sc_hd__mux2_1_4_X
*446 cbx_1__1_\.mux_top_ipin_13\.sky130_fd_sc_hd__mux2_1_5_X
*447 cbx_1__1_\.mux_top_ipin_13\.sky130_fd_sc_hd__mux2_1_6_X
*448 cbx_1__1_\.mux_top_ipin_13\.sky130_fd_sc_hd__mux2_1_7_X
*449 cbx_1__1_\.mux_top_ipin_13\.sky130_fd_sc_hd__mux2_1_8_X
*450 cbx_1__1_\.mux_top_ipin_13\.sky130_fd_sc_hd__mux2_1_9_X
*451 cbx_1__1_\.mux_top_ipin_14\.sky130_fd_sc_hd__mux2_1_0_X
*452 cbx_1__1_\.mux_top_ipin_14\.sky130_fd_sc_hd__mux2_1_10_X
*453 cbx_1__1_\.mux_top_ipin_14\.sky130_fd_sc_hd__mux2_1_11_X
*454 cbx_1__1_\.mux_top_ipin_14\.sky130_fd_sc_hd__mux2_1_1_X
*455 cbx_1__1_\.mux_top_ipin_14\.sky130_fd_sc_hd__mux2_1_2_X
*456 cbx_1__1_\.mux_top_ipin_14\.sky130_fd_sc_hd__mux2_1_3_X
*457 cbx_1__1_\.mux_top_ipin_14\.sky130_fd_sc_hd__mux2_1_4_X
*458 cbx_1__1_\.mux_top_ipin_14\.sky130_fd_sc_hd__mux2_1_5_X
*459 cbx_1__1_\.mux_top_ipin_14\.sky130_fd_sc_hd__mux2_1_6_X
*460 cbx_1__1_\.mux_top_ipin_14\.sky130_fd_sc_hd__mux2_1_7_X
*461 cbx_1__1_\.mux_top_ipin_14\.sky130_fd_sc_hd__mux2_1_8_X
*462 cbx_1__1_\.mux_top_ipin_14\.sky130_fd_sc_hd__mux2_1_9_X
*463 cbx_1__1_\.mux_top_ipin_15\.sky130_fd_sc_hd__mux2_1_0_X
*464 cbx_1__1_\.mux_top_ipin_15\.sky130_fd_sc_hd__mux2_1_1_X
*465 cbx_1__1_\.mux_top_ipin_15\.sky130_fd_sc_hd__mux2_1_2_X
*466 cbx_1__1_\.mux_top_ipin_15\.sky130_fd_sc_hd__mux2_1_3_X
*467 cbx_1__1_\.mux_top_ipin_15\.sky130_fd_sc_hd__mux2_1_4_X
*468 cbx_1__1_\.mux_top_ipin_15\.sky130_fd_sc_hd__mux2_1_5_X
*469 cbx_1__1_\.mux_top_ipin_15\.sky130_fd_sc_hd__mux2_1_6_X
*470 cbx_1__1_\.mux_top_ipin_15\.sky130_fd_sc_hd__mux2_1_7_X
*471 cbx_1__1_\.mux_top_ipin_15\.sky130_fd_sc_hd__mux2_1_8_X
*472 cbx_1__1_\.mux_top_ipin_15\.sky130_fd_sc_hd__mux2_1_9_X
*473 cbx_1__1_\.mux_top_ipin_2\.sky130_fd_sc_hd__mux2_1_0_X
*474 cbx_1__1_\.mux_top_ipin_2\.sky130_fd_sc_hd__mux2_1_10_X
*475 cbx_1__1_\.mux_top_ipin_2\.sky130_fd_sc_hd__mux2_1_11_X
*476 cbx_1__1_\.mux_top_ipin_2\.sky130_fd_sc_hd__mux2_1_1_X
*477 cbx_1__1_\.mux_top_ipin_2\.sky130_fd_sc_hd__mux2_1_2_X
*478 cbx_1__1_\.mux_top_ipin_2\.sky130_fd_sc_hd__mux2_1_3_X
*479 cbx_1__1_\.mux_top_ipin_2\.sky130_fd_sc_hd__mux2_1_4_X
*480 cbx_1__1_\.mux_top_ipin_2\.sky130_fd_sc_hd__mux2_1_5_X
*481 cbx_1__1_\.mux_top_ipin_2\.sky130_fd_sc_hd__mux2_1_6_X
*482 cbx_1__1_\.mux_top_ipin_2\.sky130_fd_sc_hd__mux2_1_7_X
*483 cbx_1__1_\.mux_top_ipin_2\.sky130_fd_sc_hd__mux2_1_8_X
*484 cbx_1__1_\.mux_top_ipin_2\.sky130_fd_sc_hd__mux2_1_9_X
*485 cbx_1__1_\.mux_top_ipin_3\.sky130_fd_sc_hd__mux2_1_0_X
*486 cbx_1__1_\.mux_top_ipin_3\.sky130_fd_sc_hd__mux2_1_1_X
*487 cbx_1__1_\.mux_top_ipin_3\.sky130_fd_sc_hd__mux2_1_2_X
*488 cbx_1__1_\.mux_top_ipin_3\.sky130_fd_sc_hd__mux2_1_3_X
*489 cbx_1__1_\.mux_top_ipin_3\.sky130_fd_sc_hd__mux2_1_4_X
*490 cbx_1__1_\.mux_top_ipin_3\.sky130_fd_sc_hd__mux2_1_5_X
*491 cbx_1__1_\.mux_top_ipin_3\.sky130_fd_sc_hd__mux2_1_6_X
*492 cbx_1__1_\.mux_top_ipin_3\.sky130_fd_sc_hd__mux2_1_7_X
*493 cbx_1__1_\.mux_top_ipin_3\.sky130_fd_sc_hd__mux2_1_8_X
*494 cbx_1__1_\.mux_top_ipin_3\.sky130_fd_sc_hd__mux2_1_9_X
*495 cbx_1__1_\.mux_top_ipin_4\.sky130_fd_sc_hd__mux2_1_0_X
*496 cbx_1__1_\.mux_top_ipin_4\.sky130_fd_sc_hd__mux2_1_10_X
*497 cbx_1__1_\.mux_top_ipin_4\.sky130_fd_sc_hd__mux2_1_11_X
*498 cbx_1__1_\.mux_top_ipin_4\.sky130_fd_sc_hd__mux2_1_1_X
*499 cbx_1__1_\.mux_top_ipin_4\.sky130_fd_sc_hd__mux2_1_2_X
*500 cbx_1__1_\.mux_top_ipin_4\.sky130_fd_sc_hd__mux2_1_3_X
*501 cbx_1__1_\.mux_top_ipin_4\.sky130_fd_sc_hd__mux2_1_4_X
*502 cbx_1__1_\.mux_top_ipin_4\.sky130_fd_sc_hd__mux2_1_5_X
*503 cbx_1__1_\.mux_top_ipin_4\.sky130_fd_sc_hd__mux2_1_6_X
*504 cbx_1__1_\.mux_top_ipin_4\.sky130_fd_sc_hd__mux2_1_7_X
*505 cbx_1__1_\.mux_top_ipin_4\.sky130_fd_sc_hd__mux2_1_8_X
*506 cbx_1__1_\.mux_top_ipin_4\.sky130_fd_sc_hd__mux2_1_9_X
*507 cbx_1__1_\.mux_top_ipin_5\.sky130_fd_sc_hd__mux2_1_0_X
*508 cbx_1__1_\.mux_top_ipin_5\.sky130_fd_sc_hd__mux2_1_1_X
*509 cbx_1__1_\.mux_top_ipin_5\.sky130_fd_sc_hd__mux2_1_2_X
*510 cbx_1__1_\.mux_top_ipin_5\.sky130_fd_sc_hd__mux2_1_3_X
*511 cbx_1__1_\.mux_top_ipin_5\.sky130_fd_sc_hd__mux2_1_4_X
*512 cbx_1__1_\.mux_top_ipin_5\.sky130_fd_sc_hd__mux2_1_5_X
*513 cbx_1__1_\.mux_top_ipin_5\.sky130_fd_sc_hd__mux2_1_6_X
*514 cbx_1__1_\.mux_top_ipin_5\.sky130_fd_sc_hd__mux2_1_7_X
*515 cbx_1__1_\.mux_top_ipin_5\.sky130_fd_sc_hd__mux2_1_8_X
*516 cbx_1__1_\.mux_top_ipin_5\.sky130_fd_sc_hd__mux2_1_9_X
*517 cbx_1__1_\.mux_top_ipin_6\.sky130_fd_sc_hd__mux2_1_0_X
*518 cbx_1__1_\.mux_top_ipin_6\.sky130_fd_sc_hd__mux2_1_10_X
*519 cbx_1__1_\.mux_top_ipin_6\.sky130_fd_sc_hd__mux2_1_11_X
*520 cbx_1__1_\.mux_top_ipin_6\.sky130_fd_sc_hd__mux2_1_1_X
*521 cbx_1__1_\.mux_top_ipin_6\.sky130_fd_sc_hd__mux2_1_2_X
*522 cbx_1__1_\.mux_top_ipin_6\.sky130_fd_sc_hd__mux2_1_3_X
*523 cbx_1__1_\.mux_top_ipin_6\.sky130_fd_sc_hd__mux2_1_4_X
*524 cbx_1__1_\.mux_top_ipin_6\.sky130_fd_sc_hd__mux2_1_5_X
*525 cbx_1__1_\.mux_top_ipin_6\.sky130_fd_sc_hd__mux2_1_6_X
*526 cbx_1__1_\.mux_top_ipin_6\.sky130_fd_sc_hd__mux2_1_7_X
*527 cbx_1__1_\.mux_top_ipin_6\.sky130_fd_sc_hd__mux2_1_8_X
*528 cbx_1__1_\.mux_top_ipin_6\.sky130_fd_sc_hd__mux2_1_9_X
*529 cbx_1__1_\.mux_top_ipin_7\.sky130_fd_sc_hd__mux2_1_0_X
*530 cbx_1__1_\.mux_top_ipin_7\.sky130_fd_sc_hd__mux2_1_1_X
*531 cbx_1__1_\.mux_top_ipin_7\.sky130_fd_sc_hd__mux2_1_2_X
*532 cbx_1__1_\.mux_top_ipin_7\.sky130_fd_sc_hd__mux2_1_3_X
*533 cbx_1__1_\.mux_top_ipin_7\.sky130_fd_sc_hd__mux2_1_4_X
*534 cbx_1__1_\.mux_top_ipin_7\.sky130_fd_sc_hd__mux2_1_5_X
*535 cbx_1__1_\.mux_top_ipin_7\.sky130_fd_sc_hd__mux2_1_6_X
*536 cbx_1__1_\.mux_top_ipin_7\.sky130_fd_sc_hd__mux2_1_7_X
*537 cbx_1__1_\.mux_top_ipin_7\.sky130_fd_sc_hd__mux2_1_8_X
*538 cbx_1__1_\.mux_top_ipin_7\.sky130_fd_sc_hd__mux2_1_9_X
*539 cbx_1__1_\.mux_top_ipin_8\.sky130_fd_sc_hd__mux2_1_0_X
*540 cbx_1__1_\.mux_top_ipin_8\.sky130_fd_sc_hd__mux2_1_10_X
*541 cbx_1__1_\.mux_top_ipin_8\.sky130_fd_sc_hd__mux2_1_11_X
*542 cbx_1__1_\.mux_top_ipin_8\.sky130_fd_sc_hd__mux2_1_1_X
*543 cbx_1__1_\.mux_top_ipin_8\.sky130_fd_sc_hd__mux2_1_2_X
*544 cbx_1__1_\.mux_top_ipin_8\.sky130_fd_sc_hd__mux2_1_3_X
*545 cbx_1__1_\.mux_top_ipin_8\.sky130_fd_sc_hd__mux2_1_4_X
*546 cbx_1__1_\.mux_top_ipin_8\.sky130_fd_sc_hd__mux2_1_5_X
*547 cbx_1__1_\.mux_top_ipin_8\.sky130_fd_sc_hd__mux2_1_6_X
*548 cbx_1__1_\.mux_top_ipin_8\.sky130_fd_sc_hd__mux2_1_7_X
*549 cbx_1__1_\.mux_top_ipin_8\.sky130_fd_sc_hd__mux2_1_8_X
*550 cbx_1__1_\.mux_top_ipin_8\.sky130_fd_sc_hd__mux2_1_9_X
*551 cbx_1__1_\.mux_top_ipin_9\.sky130_fd_sc_hd__mux2_1_0_X
*552 cbx_1__1_\.mux_top_ipin_9\.sky130_fd_sc_hd__mux2_1_1_X
*553 cbx_1__1_\.mux_top_ipin_9\.sky130_fd_sc_hd__mux2_1_2_X
*554 cbx_1__1_\.mux_top_ipin_9\.sky130_fd_sc_hd__mux2_1_3_X
*555 cbx_1__1_\.mux_top_ipin_9\.sky130_fd_sc_hd__mux2_1_4_X
*556 cbx_1__1_\.mux_top_ipin_9\.sky130_fd_sc_hd__mux2_1_5_X
*557 cbx_1__1_\.mux_top_ipin_9\.sky130_fd_sc_hd__mux2_1_6_X
*558 cbx_1__1_\.mux_top_ipin_9\.sky130_fd_sc_hd__mux2_1_7_X
*559 cbx_1__1_\.mux_top_ipin_9\.sky130_fd_sc_hd__mux2_1_8_X
*560 cbx_1__1_\.mux_top_ipin_9\.sky130_fd_sc_hd__mux2_1_9_X
*561 cby_1__1_\.ccff_tail
*562 cby_1__1_\.left_grid_right_width_0_height_0_subtile_0__pin_I4_0_
*563 cby_1__1_\.left_grid_right_width_0_height_0_subtile_0__pin_I4_1_
*564 cby_1__1_\.left_grid_right_width_0_height_0_subtile_0__pin_I4i_0_
*565 cby_1__1_\.left_grid_right_width_0_height_0_subtile_0__pin_I4i_1_
*566 cby_1__1_\.left_grid_right_width_0_height_0_subtile_0__pin_I5_0_
*567 cby_1__1_\.left_grid_right_width_0_height_0_subtile_0__pin_I5_1_
*568 cby_1__1_\.left_grid_right_width_0_height_0_subtile_0__pin_I5i_0_
*569 cby_1__1_\.left_grid_right_width_0_height_0_subtile_0__pin_I5i_1_
*570 cby_1__1_\.left_grid_right_width_0_height_0_subtile_0__pin_I6_0_
*571 cby_1__1_\.left_grid_right_width_0_height_0_subtile_0__pin_I6_1_
*572 cby_1__1_\.left_grid_right_width_0_height_0_subtile_0__pin_I6i_0_
*573 cby_1__1_\.left_grid_right_width_0_height_0_subtile_0__pin_I6i_1_
*574 cby_1__1_\.left_grid_right_width_0_height_0_subtile_0__pin_I7_0_
*575 cby_1__1_\.left_grid_right_width_0_height_0_subtile_0__pin_I7_1_
*576 cby_1__1_\.left_grid_right_width_0_height_0_subtile_0__pin_I7i_0_
*577 cby_1__1_\.left_grid_right_width_0_height_0_subtile_0__pin_I7i_1_
*578 cby_1__1_\.mem_right_ipin_0\.ccff_tail
*579 cby_1__1_\.mem_right_ipin_0\.mem_out\[0\]
*580 cby_1__1_\.mem_right_ipin_0\.mem_out\[1\]
*581 cby_1__1_\.mem_right_ipin_0\.mem_out\[2\]
*582 cby_1__1_\.mem_right_ipin_1\.ccff_tail
*583 cby_1__1_\.mem_right_ipin_1\.mem_out\[0\]
*584 cby_1__1_\.mem_right_ipin_1\.mem_out\[1\]
*585 cby_1__1_\.mem_right_ipin_1\.mem_out\[2\]
*586 cby_1__1_\.mem_right_ipin_10\.ccff_head
*587 cby_1__1_\.mem_right_ipin_10\.ccff_tail
*588 cby_1__1_\.mem_right_ipin_10\.mem_out\[0\]
*589 cby_1__1_\.mem_right_ipin_10\.mem_out\[1\]
*590 cby_1__1_\.mem_right_ipin_10\.mem_out\[2\]
*591 cby_1__1_\.mem_right_ipin_11\.ccff_tail
*592 cby_1__1_\.mem_right_ipin_11\.mem_out\[0\]
*593 cby_1__1_\.mem_right_ipin_11\.mem_out\[1\]
*594 cby_1__1_\.mem_right_ipin_11\.mem_out\[2\]
*595 cby_1__1_\.mem_right_ipin_12\.ccff_tail
*596 cby_1__1_\.mem_right_ipin_12\.mem_out\[0\]
*597 cby_1__1_\.mem_right_ipin_12\.mem_out\[1\]
*598 cby_1__1_\.mem_right_ipin_12\.mem_out\[2\]
*599 cby_1__1_\.mem_right_ipin_13\.ccff_tail
*600 cby_1__1_\.mem_right_ipin_13\.mem_out\[0\]
*601 cby_1__1_\.mem_right_ipin_13\.mem_out\[1\]
*602 cby_1__1_\.mem_right_ipin_13\.mem_out\[2\]
*603 cby_1__1_\.mem_right_ipin_14\.ccff_tail
*604 cby_1__1_\.mem_right_ipin_14\.mem_out\[0\]
*605 cby_1__1_\.mem_right_ipin_14\.mem_out\[1\]
*606 cby_1__1_\.mem_right_ipin_14\.mem_out\[2\]
*607 cby_1__1_\.mem_right_ipin_15\.mem_out\[0\]
*608 cby_1__1_\.mem_right_ipin_15\.mem_out\[1\]
*609 cby_1__1_\.mem_right_ipin_15\.mem_out\[2\]
*610 cby_1__1_\.mem_right_ipin_2\.ccff_tail
*611 cby_1__1_\.mem_right_ipin_2\.mem_out\[0\]
*612 cby_1__1_\.mem_right_ipin_2\.mem_out\[1\]
*613 cby_1__1_\.mem_right_ipin_2\.mem_out\[2\]
*614 cby_1__1_\.mem_right_ipin_3\.ccff_tail
*615 cby_1__1_\.mem_right_ipin_3\.mem_out\[0\]
*616 cby_1__1_\.mem_right_ipin_3\.mem_out\[1\]
*617 cby_1__1_\.mem_right_ipin_3\.mem_out\[2\]
*618 cby_1__1_\.mem_right_ipin_4\.ccff_tail
*619 cby_1__1_\.mem_right_ipin_4\.mem_out\[0\]
*620 cby_1__1_\.mem_right_ipin_4\.mem_out\[1\]
*621 cby_1__1_\.mem_right_ipin_4\.mem_out\[2\]
*622 cby_1__1_\.mem_right_ipin_5\.ccff_tail
*623 cby_1__1_\.mem_right_ipin_5\.mem_out\[0\]
*624 cby_1__1_\.mem_right_ipin_5\.mem_out\[1\]
*625 cby_1__1_\.mem_right_ipin_5\.mem_out\[2\]
*626 cby_1__1_\.mem_right_ipin_6\.ccff_tail
*627 cby_1__1_\.mem_right_ipin_6\.mem_out\[0\]
*628 cby_1__1_\.mem_right_ipin_6\.mem_out\[1\]
*629 cby_1__1_\.mem_right_ipin_6\.mem_out\[2\]
*630 cby_1__1_\.mem_right_ipin_7\.ccff_tail
*631 cby_1__1_\.mem_right_ipin_7\.mem_out\[0\]
*632 cby_1__1_\.mem_right_ipin_7\.mem_out\[1\]
*633 cby_1__1_\.mem_right_ipin_7\.mem_out\[2\]
*634 cby_1__1_\.mem_right_ipin_8\.ccff_tail
*635 cby_1__1_\.mem_right_ipin_8\.mem_out\[0\]
*636 cby_1__1_\.mem_right_ipin_8\.mem_out\[1\]
*637 cby_1__1_\.mem_right_ipin_8\.mem_out\[2\]
*638 cby_1__1_\.mem_right_ipin_9\.mem_out\[0\]
*639 cby_1__1_\.mem_right_ipin_9\.mem_out\[1\]
*640 cby_1__1_\.mem_right_ipin_9\.mem_out\[2\]
*641 cby_1__1_\.mux_right_ipin_0\.sky130_fd_sc_hd__mux2_1_0_X
*642 cby_1__1_\.mux_right_ipin_0\.sky130_fd_sc_hd__mux2_1_10_X
*643 cby_1__1_\.mux_right_ipin_0\.sky130_fd_sc_hd__mux2_1_11_X
*644 cby_1__1_\.mux_right_ipin_0\.sky130_fd_sc_hd__mux2_1_1_X
*645 cby_1__1_\.mux_right_ipin_0\.sky130_fd_sc_hd__mux2_1_2_X
*646 cby_1__1_\.mux_right_ipin_0\.sky130_fd_sc_hd__mux2_1_3_X
*647 cby_1__1_\.mux_right_ipin_0\.sky130_fd_sc_hd__mux2_1_4_X
*648 cby_1__1_\.mux_right_ipin_0\.sky130_fd_sc_hd__mux2_1_5_X
*649 cby_1__1_\.mux_right_ipin_0\.sky130_fd_sc_hd__mux2_1_6_X
*650 cby_1__1_\.mux_right_ipin_0\.sky130_fd_sc_hd__mux2_1_7_X
*651 cby_1__1_\.mux_right_ipin_0\.sky130_fd_sc_hd__mux2_1_8_X
*652 cby_1__1_\.mux_right_ipin_0\.sky130_fd_sc_hd__mux2_1_9_X
*653 cby_1__1_\.mux_right_ipin_1\.sky130_fd_sc_hd__mux2_1_0_X
*654 cby_1__1_\.mux_right_ipin_1\.sky130_fd_sc_hd__mux2_1_1_X
*655 cby_1__1_\.mux_right_ipin_1\.sky130_fd_sc_hd__mux2_1_2_X
*656 cby_1__1_\.mux_right_ipin_1\.sky130_fd_sc_hd__mux2_1_3_X
*657 cby_1__1_\.mux_right_ipin_1\.sky130_fd_sc_hd__mux2_1_4_X
*658 cby_1__1_\.mux_right_ipin_1\.sky130_fd_sc_hd__mux2_1_5_X
*659 cby_1__1_\.mux_right_ipin_1\.sky130_fd_sc_hd__mux2_1_6_X
*660 cby_1__1_\.mux_right_ipin_1\.sky130_fd_sc_hd__mux2_1_7_X
*661 cby_1__1_\.mux_right_ipin_1\.sky130_fd_sc_hd__mux2_1_8_X
*662 cby_1__1_\.mux_right_ipin_1\.sky130_fd_sc_hd__mux2_1_9_X
*663 cby_1__1_\.mux_right_ipin_10\.sky130_fd_sc_hd__mux2_1_0_X
*664 cby_1__1_\.mux_right_ipin_10\.sky130_fd_sc_hd__mux2_1_10_X
*665 cby_1__1_\.mux_right_ipin_10\.sky130_fd_sc_hd__mux2_1_11_X
*666 cby_1__1_\.mux_right_ipin_10\.sky130_fd_sc_hd__mux2_1_1_X
*667 cby_1__1_\.mux_right_ipin_10\.sky130_fd_sc_hd__mux2_1_2_X
*668 cby_1__1_\.mux_right_ipin_10\.sky130_fd_sc_hd__mux2_1_3_X
*669 cby_1__1_\.mux_right_ipin_10\.sky130_fd_sc_hd__mux2_1_4_X
*670 cby_1__1_\.mux_right_ipin_10\.sky130_fd_sc_hd__mux2_1_5_X
*671 cby_1__1_\.mux_right_ipin_10\.sky130_fd_sc_hd__mux2_1_6_X
*672 cby_1__1_\.mux_right_ipin_10\.sky130_fd_sc_hd__mux2_1_7_X
*673 cby_1__1_\.mux_right_ipin_10\.sky130_fd_sc_hd__mux2_1_8_X
*674 cby_1__1_\.mux_right_ipin_10\.sky130_fd_sc_hd__mux2_1_9_X
*675 cby_1__1_\.mux_right_ipin_11\.sky130_fd_sc_hd__mux2_1_0_X
*676 cby_1__1_\.mux_right_ipin_11\.sky130_fd_sc_hd__mux2_1_1_X
*677 cby_1__1_\.mux_right_ipin_11\.sky130_fd_sc_hd__mux2_1_2_X
*678 cby_1__1_\.mux_right_ipin_11\.sky130_fd_sc_hd__mux2_1_3_X
*679 cby_1__1_\.mux_right_ipin_11\.sky130_fd_sc_hd__mux2_1_4_X
*680 cby_1__1_\.mux_right_ipin_11\.sky130_fd_sc_hd__mux2_1_5_X
*681 cby_1__1_\.mux_right_ipin_11\.sky130_fd_sc_hd__mux2_1_6_X
*682 cby_1__1_\.mux_right_ipin_11\.sky130_fd_sc_hd__mux2_1_7_X