*SPEF "ieee 1481-1999"
*DESIGN "bottom_left_tile"
*DATE "11:11:11 Fri 11 11, 1111"
*VENDOR "OpenRCX"
*PROGRAM "Parallel Extraction"
*VERSION "1.0"
*DESIGN_FLOW "NAME_SCOPE LOCAL" "PIN_CAP NONE"
*DIVIDER /
*DELIMITER :
*BUS_DELIMITER []
*T_UNIT 1 NS
*C_UNIT 1 PF
*R_UNIT 1 OHM
*L_UNIT 1 HENRY

*NAME_MAP
*3 ccff_head
*4 ccff_tail
*5 chanx_right_in[0]
*6 chanx_right_in[10]
*7 chanx_right_in[11]
*8 chanx_right_in[12]
*9 chanx_right_in[13]
*10 chanx_right_in[14]
*11 chanx_right_in[15]
*12 chanx_right_in[16]
*13 chanx_right_in[17]
*14 chanx_right_in[18]
*15 chanx_right_in[19]
*16 chanx_right_in[1]
*17 chanx_right_in[20]
*18 chanx_right_in[21]
*19 chanx_right_in[22]
*20 chanx_right_in[23]
*21 chanx_right_in[24]
*22 chanx_right_in[25]
*23 chanx_right_in[26]
*24 chanx_right_in[27]
*25 chanx_right_in[28]
*26 chanx_right_in[29]
*27 chanx_right_in[2]
*28 chanx_right_in[3]
*29 chanx_right_in[4]
*30 chanx_right_in[5]
*31 chanx_right_in[6]
*32 chanx_right_in[7]
*33 chanx_right_in[8]
*34 chanx_right_in[9]
*35 chanx_right_out[0]
*36 chanx_right_out[10]
*37 chanx_right_out[11]
*38 chanx_right_out[12]
*39 chanx_right_out[13]
*40 chanx_right_out[14]
*41 chanx_right_out[15]
*42 chanx_right_out[16]
*43 chanx_right_out[17]
*44 chanx_right_out[18]
*45 chanx_right_out[19]
*46 chanx_right_out[1]
*47 chanx_right_out[20]
*48 chanx_right_out[21]
*49 chanx_right_out[22]
*50 chanx_right_out[23]
*51 chanx_right_out[24]
*52 chanx_right_out[25]
*53 chanx_right_out[26]
*54 chanx_right_out[27]
*55 chanx_right_out[28]
*56 chanx_right_out[29]
*57 chanx_right_out[2]
*58 chanx_right_out[3]
*59 chanx_right_out[4]
*60 chanx_right_out[5]
*61 chanx_right_out[6]
*62 chanx_right_out[7]
*63 chanx_right_out[8]
*64 chanx_right_out[9]
*65 chany_top_in[0]
*66 chany_top_in[10]
*67 chany_top_in[11]
*68 chany_top_in[12]
*69 chany_top_in[13]
*70 chany_top_in[14]
*71 chany_top_in[15]
*72 chany_top_in[16]
*73 chany_top_in[17]
*74 chany_top_in[18]
*75 chany_top_in[19]
*76 chany_top_in[1]
*77 chany_top_in[20]
*78 chany_top_in[21]
*79 chany_top_in[22]
*80 chany_top_in[23]
*81 chany_top_in[24]
*82 chany_top_in[25]
*83 chany_top_in[26]
*84 chany_top_in[27]
*85 chany_top_in[28]
*86 chany_top_in[29]
*87 chany_top_in[2]
*88 chany_top_in[3]
*89 chany_top_in[4]
*90 chany_top_in[5]
*91 chany_top_in[6]
*92 chany_top_in[7]
*93 chany_top_in[8]
*94 chany_top_in[9]
*95 chany_top_out[0]
*96 chany_top_out[10]
*97 chany_top_out[11]
*98 chany_top_out[12]
*99 chany_top_out[13]
*100 chany_top_out[14]
*101 chany_top_out[15]
*102 chany_top_out[16]
*103 chany_top_out[17]
*104 chany_top_out[18]
*105 chany_top_out[19]
*106 chany_top_out[1]
*107 chany_top_out[20]
*108 chany_top_out[21]
*109 chany_top_out[22]
*110 chany_top_out[23]
*111 chany_top_out[24]
*112 chany_top_out[25]
*113 chany_top_out[26]
*114 chany_top_out[27]
*115 chany_top_out[28]
*116 chany_top_out[29]
*117 chany_top_out[2]
*118 chany_top_out[3]
*119 chany_top_out[4]
*120 chany_top_out[5]
*121 chany_top_out[6]
*122 chany_top_out[7]
*123 chany_top_out[8]
*124 chany_top_out[9]
*125 prog_clk
*126 prog_reset
*127 reset
*128 right_bottom_grid_top_width_0_height_0_subtile_0__pin_inpad_0_
*129 right_bottom_grid_top_width_0_height_0_subtile_1__pin_inpad_0_
*130 right_bottom_grid_top_width_0_height_0_subtile_2__pin_inpad_0_
*131 right_bottom_grid_top_width_0_height_0_subtile_3__pin_inpad_0_
*132 test_enable
*133 top_left_grid_right_width_0_height_0_subtile_0__pin_inpad_0_
*134 top_left_grid_right_width_0_height_0_subtile_1__pin_inpad_0_
*135 top_left_grid_right_width_0_height_0_subtile_2__pin_inpad_0_
*136 top_left_grid_right_width_0_height_0_subtile_3__pin_inpad_0_
*137 clknet_0_prog_clk
*138 clknet_3_0__leaf_prog_clk
*139 clknet_3_1__leaf_prog_clk
*140 clknet_3_2__leaf_prog_clk
*141 clknet_3_3__leaf_prog_clk
*142 clknet_3_4__leaf_prog_clk
*143 clknet_3_5__leaf_prog_clk
*144 clknet_3_6__leaf_prog_clk
*145 clknet_3_7__leaf_prog_clk
*146 net1
*147 net10
*148 net100
*149 net101
*150 net102
*151 net103
*152 net104
*153 net105
*154 net106
*155 net107
*156 net108
*157 net109
*158 net11
*159 net110
*160 net111
*161 net112
*162 net113
*163 net114
*164 net115
*165 net116
*166 net117
*167 net118
*168 net119
*169 net12
*170 net120
*171 net121
*172 net122
*173 net123
*174 net124
*175 net125
*176 net126
*177 net127
*178 net128
*179 net129
*180 net13
*181 net130
*182 net131
*183 net132
*184 net133
*185 net134
*186 net135
*187 net136
*188 net137
*189 net138
*190 net139
*191 net14
*192 net140
*193 net141
*194 net142
*195 net143
*196 net144
*197 net145
*198 net146
*199 net147
*200 net148
*201 net149
*202 net15
*203 net150
*204 net151
*205 net152
*206 net153
*207 net154
*208 net155
*209 net156
*210 net157
*211 net158
*212 net159
*213 net16
*214 net160
*215 net161
*216 net162
*217 net163
*218 net164
*219 net165
*220 net166
*221 net167
*222 net17
*223 net18
*224 net19
*225 net2
*226 net20
*227 net21
*228 net22
*229 net23
*230 net24
*231 net25
*232 net26
*233 net27
*234 net28
*235 net29
*236 net3
*237 net30
*238 net31
*239 net32
*240 net33
*241 net34
*242 net35
*243 net36
*244 net37
*245 net38
*246 net39
*247 net4
*248 net40
*249 net41
*250 net42
*251 net43
*252 net44
*253 net45
*254 net46
*255 net47
*256 net48
*257 net49
*258 net5
*259 net50
*260 net51
*261 net52
*262 net53
*263 net54
*264 net55
*265 net56
*266 net57
*267 net58
*268 net59
*269 net6
*270 net60
*271 net61
*272 net62
*273 net63
*274 net64
*275 net65
*276 net66
*277 net67
*278 net68
*279 net69
*280 net7
*281 net70
*282 net71
*283 net72
*284 net73
*285 net74
*286 net75
*287 net76
*288 net77
*289 net78
*290 net79
*291 net8
*292 net80
*293 net81
*294 net82
*295 net83
*296 net84
*297 net85
*298 net86
*299 net87
*300 net88
*301 net89
*302 net9
*303 net90
*304 net91
*305 net92
*306 net93
*307 net94
*308 net95
*309 net96
*310 net97
*311 net98
*312 net99
*313 sb_0__0_\.mem_right_track_0\.ccff_head
*314 sb_0__0_\.mem_right_track_0\.ccff_tail
*315 sb_0__0_\.mem_right_track_0\.mem_out\[0\]
*316 sb_0__0_\.mem_right_track_10\.ccff_head
*317 sb_0__0_\.mem_right_track_10\.ccff_tail
*318 sb_0__0_\.mem_right_track_10\.mem_out\[0\]
*319 sb_0__0_\.mem_right_track_12\.ccff_tail
*320 sb_0__0_\.mem_right_track_12\.mem_out\[0\]
*321 sb_0__0_\.mem_right_track_14\.ccff_tail
*322 sb_0__0_\.mem_right_track_14\.mem_out\[0\]
*323 sb_0__0_\.mem_right_track_16\.ccff_tail
*324 sb_0__0_\.mem_right_track_16\.mem_out\[0\]
*325 sb_0__0_\.mem_right_track_18\.ccff_tail
*326 sb_0__0_\.mem_right_track_18\.mem_out\[0\]
*327 sb_0__0_\.mem_right_track_2\.ccff_tail
*328 sb_0__0_\.mem_right_track_2\.mem_out\[0\]
*329 sb_0__0_\.mem_right_track_28\.ccff_tail
*330 sb_0__0_\.mem_right_track_28\.mem_out\[0\]
*331 sb_0__0_\.mem_right_track_30\.ccff_tail
*332 sb_0__0_\.mem_right_track_30\.mem_out\[0\]
*333 sb_0__0_\.mem_right_track_32\.ccff_tail
*334 sb_0__0_\.mem_right_track_32\.mem_out\[0\]
*335 sb_0__0_\.mem_right_track_34\.ccff_tail
*336 sb_0__0_\.mem_right_track_34\.mem_out\[0\]
*337 sb_0__0_\.mem_right_track_4\.ccff_tail
*338 sb_0__0_\.mem_right_track_4\.mem_out\[0\]
*339 sb_0__0_\.mem_right_track_44\.ccff_tail
*340 sb_0__0_\.mem_right_track_44\.mem_out\[0\]
*341 sb_0__0_\.mem_right_track_46\.ccff_tail
*342 sb_0__0_\.mem_right_track_46\.mem_out\[0\]
*343 sb_0__0_\.mem_right_track_48\.ccff_tail
*344 sb_0__0_\.mem_right_track_48\.mem_out\[0\]
*345 sb_0__0_\.mem_right_track_50\.mem_out\[0\]
*346 sb_0__0_\.mem_right_track_6\.ccff_tail
*347 sb_0__0_\.mem_right_track_6\.mem_out\[0\]
*348 sb_0__0_\.mem_right_track_8\.mem_out\[0\]
*349 sb_0__0_\.mem_top_track_0\.ccff_tail
*350 sb_0__0_\.mem_top_track_0\.mem_out\[0\]
*351 sb_0__0_\.mem_top_track_10\.ccff_head
*352 sb_0__0_\.mem_top_track_10\.ccff_tail
*353 sb_0__0_\.mem_top_track_10\.mem_out\[0\]
*354 sb_0__0_\.mem_top_track_12\.ccff_tail
*355 sb_0__0_\.mem_top_track_12\.mem_out\[0\]
*356 sb_0__0_\.mem_top_track_14\.ccff_tail
*357 sb_0__0_\.mem_top_track_14\.mem_out\[0\]
*358 sb_0__0_\.mem_top_track_16\.ccff_tail
*359 sb_0__0_\.mem_top_track_16\.mem_out\[0\]
*360 sb_0__0_\.mem_top_track_18\.ccff_tail
*361 sb_0__0_\.mem_top_track_18\.mem_out\[0\]
*362 sb_0__0_\.mem_top_track_2\.ccff_tail
*363 sb_0__0_\.mem_top_track_2\.mem_out\[0\]
*364 sb_0__0_\.mem_top_track_28\.ccff_tail
*365 sb_0__0_\.mem_top_track_28\.mem_out\[0\]
*366 sb_0__0_\.mem_top_track_30\.ccff_tail
*367 sb_0__0_\.mem_top_track_30\.mem_out\[0\]
*368 sb_0__0_\.mem_top_track_32\.ccff_tail
*369 sb_0__0_\.mem_top_track_32\.mem_out\[0\]
*370 sb_0__0_\.mem_top_track_34\.ccff_tail
*371 sb_0__0_\.mem_top_track_34\.mem_out\[0\]
*372 sb_0__0_\.mem_top_track_4\.ccff_tail
*373 sb_0__0_\.mem_top_track_4\.mem_out\[0\]
*374 sb_0__0_\.mem_top_track_44\.ccff_tail
*375 sb_0__0_\.mem_top_track_44\.mem_out\[0\]
*376 sb_0__0_\.mem_top_track_46\.ccff_tail
*377 sb_0__0_\.mem_top_track_46\.mem_out\[0\]
*378 sb_0__0_\.mem_top_track_48\.ccff_tail
*379 sb_0__0_\.mem_top_track_48\.mem_out\[0\]
*380 sb_0__0_\.mem_top_track_50\.mem_out\[0\]
*381 sb_0__0_\.mem_top_track_6\.ccff_tail
*382 sb_0__0_\.mem_top_track_6\.mem_out\[0\]
*383 sb_0__0_\.mem_top_track_8\.mem_out\[0\]
*384 sb_0__0_\.mux_right_track_0\.out
*385 sb_0__0_\.mux_right_track_0\.sky130_fd_sc_hd__mux2_1_0_X
*386 sb_0__0_\.mux_right_track_0\.sky130_fd_sc_hd__mux2_1_1_X
*387 sb_0__0_\.mux_right_track_0\.sky130_fd_sc_hd__mux2_1_2_X
*388 sb_0__0_\.mux_right_track_10\.out
*389 sb_0__0_\.mux_right_track_10\.sky130_fd_sc_hd__mux2_1_0_X
*390 sb_0__0_\.mux_right_track_10\.sky130_fd_sc_hd__mux2_1_1_X
*391 sb_0__0_\.mux_right_track_12\.out
*392 sb_0__0_\.mux_right_track_12\.sky130_fd_sc_hd__mux2_1_0_X
*393 sb_0__0_\.mux_right_track_12\.sky130_fd_sc_hd__mux2_1_1_X
*394 sb_0__0_\.mux_right_track_14\.out
*395 sb_0__0_\.mux_right_track_14\.sky130_fd_sc_hd__mux2_1_0_X
*396 sb_0__0_\.mux_right_track_14\.sky130_fd_sc_hd__mux2_1_1_X
*397 sb_0__0_\.mux_right_track_16\.out
*398 sb_0__0_\.mux_right_track_16\.sky130_fd_sc_hd__mux2_1_0_X
*399 sb_0__0_\.mux_right_track_16\.sky130_fd_sc_hd__mux2_1_1_X
*400 sb_0__0_\.mux_right_track_18\.out
*401 sb_0__0_\.mux_right_track_18\.sky130_fd_sc_hd__mux2_1_0_X
*402 sb_0__0_\.mux_right_track_18\.sky130_fd_sc_hd__mux2_1_1_X
*403 sb_0__0_\.mux_right_track_2\.out
*404 sb_0__0_\.mux_right_track_2\.sky130_fd_sc_hd__mux2_1_0_X
*405 sb_0__0_\.mux_right_track_2\.sky130_fd_sc_hd__mux2_1_1_X
*406 sb_0__0_\.mux_right_track_28\.out
*407 sb_0__0_\.mux_right_track_28\.sky130_fd_sc_hd__mux2_1_0_X
*408 sb_0__0_\.mux_right_track_28\.sky130_fd_sc_hd__mux2_1_1_X
*409 sb_0__0_\.mux_right_track_30\.out
*410 sb_0__0_\.mux_right_track_30\.sky130_fd_sc_hd__mux2_1_0_X
*411 sb_0__0_\.mux_right_track_30\.sky130_fd_sc_hd__mux2_1_1_X
*412 sb_0__0_\.mux_right_track_32\.out
*413 sb_0__0_\.mux_right_track_32\.sky130_fd_sc_hd__mux2_1_0_X
*414 sb_0__0_\.mux_right_track_32\.sky130_fd_sc_hd__mux2_1_1_X
*415 sb_0__0_\.mux_right_track_34\.out
*416 sb_0__0_\.mux_right_track_34\.sky130_fd_sc_hd__mux2_1_0_X
*417 sb_0__0_\.mux_right_track_34\.sky130_fd_sc_hd__mux2_1_1_X
*418 sb_0__0_\.mux_right_track_4\.out
*419 sb_0__0_\.mux_right_track_4\.sky130_fd_sc_hd__mux2_1_0_X
*420 sb_0__0_\.mux_right_track_4\.sky130_fd_sc_hd__mux2_1_1_X
*421 sb_0__0_\.mux_right_track_44\.out
*422 sb_0__0_\.mux_right_track_44\.sky130_fd_sc_hd__mux2_1_0_X
*423 sb_0__0_\.mux_right_track_44\.sky130_fd_sc_hd__mux2_1_1_X
*424 sb_0__0_\.mux_right_track_46\.out
*425 sb_0__0_\.mux_right_track_46\.sky130_fd_sc_hd__mux2_1_0_X
*426 sb_0__0_\.mux_right_track_46\.sky130_fd_sc_hd__mux2_1_1_X
*427 sb_0__0_\.mux_right_track_48\.out
*428 sb_0__0_\.mux_right_track_48\.sky130_fd_sc_hd__mux2_1_0_X
*429 sb_0__0_\.mux_right_track_48\.sky130_fd_sc_hd__mux2_1_1_X
*430 sb_0__0_\.mux_right_track_50\.out
*431 sb_0__0_\.mux_right_track_50\.sky130_fd_sc_hd__mux2_1_0_X
*432 sb_0__0_\.mux_right_track_50\.sky130_fd_sc_hd__mux2_1_1_X
*433 sb_0__0_\.mux_right_track_6\.out
*434 sb_0__0_\.mux_right_track_6\.sky130_fd_sc_hd__mux2_1_0_X
*435 sb_0__0_\.mux_right_track_6\.sky130_fd_sc_hd__mux2_1_1_X
*436 sb_0__0_\.mux_right_track_6\.sky130_fd_sc_hd__mux2_1_2_X
*437 sb_0__0_\.mux_right_track_8\.out
*438 sb_0__0_\.mux_right_track_8\.sky130_fd_sc_hd__mux2_1_0_X
*439 sb_0__0_\.mux_right_track_8\.sky130_fd_sc_hd__mux2_1_1_X
*440 sb_0__0_\.mux_top_track_0\.out
*441 sb_0__0_\.mux_top_track_0\.sky130_fd_sc_hd__mux2_1_0_X
*442 sb_0__0_\.mux_top_track_0\.sky130_fd_sc_hd__mux2_1_1_X
*443 sb_0__0_\.mux_top_track_0\.sky130_fd_sc_hd__mux2_1_2_X
*444 sb_0__0_\.mux_top_track_10\.out
*445 sb_0__0_\.mux_top_track_10\.sky130_fd_sc_hd__mux2_1_0_X
*446 sb_0__0_\.mux_top_track_10\.sky130_fd_sc_hd__mux2_1_1_X
*447 sb_0__0_\.mux_top_track_12\.out
*448 sb_0__0_\.mux_top_track_12\.sky130_fd_sc_hd__mux2_1_0_X
*449 sb_0__0_\.mux_top_track_12\.sky130_fd_sc_hd__mux2_1_1_X
*450 sb_0__0_\.mux_top_track_14\.out
*451 sb_0__0_\.mux_top_track_14\.sky130_fd_sc_hd__mux2_1_0_X
*452 sb_0__0_\.mux_top_track_14\.sky130_fd_sc_hd__mux2_1_1_X
*453 sb_0__0_\.mux_top_track_16\.out
*454 sb_0__0_\.mux_top_track_16\.sky130_fd_sc_hd__mux2_1_0_X
*455 sb_0__0_\.mux_top_track_16\.sky130_fd_sc_hd__mux2_1_1_X
*456 sb_0__0_\.mux_top_track_18\.out
*457 sb_0__0_\.mux_top_track_18\.sky130_fd_sc_hd__mux2_1_0_X
*458 sb_0__0_\.mux_top_track_18\.sky130_fd_sc_hd__mux2_1_1_X
*459 sb_0__0_\.mux_top_track_2\.out
*460 sb_0__0_\.mux_top_track_2\.sky130_fd_sc_hd__mux2_1_0_X
*461 sb_0__0_\.mux_top_track_2\.sky130_fd_sc_hd__mux2_1_1_X
*462 sb_0__0_\.mux_top_track_28\.out
*463 sb_0__0_\.mux_top_track_28\.sky130_fd_sc_hd__mux2_1_0_X
*464 sb_0__0_\.mux_top_track_28\.sky130_fd_sc_hd__mux2_1_1_X
*465 sb_0__0_\.mux_top_track_30\.out
*466 sb_0__0_\.mux_top_track_30\.sky130_fd_sc_hd__mux2_1_0_X
*467 sb_0__0_\.mux_top_track_30\.sky130_fd_sc_hd__mux2_1_1_X
*468 sb_0__0_\.mux_top_track_32\.out
*469 sb_0__0_\.mux_top_track_32\.sky130_fd_sc_hd__mux2_1_0_X
*470 sb_0__0_\.mux_top_track_32\.sky130_fd_sc_hd__mux2_1_1_X
*471 sb_0__0_\.mux_top_track_34\.out
*472 sb_0__0_\.mux_top_track_34\.sky130_fd_sc_hd__mux2_1_0_X
*473 sb_0__0_\.mux_top_track_34\.sky130_fd_sc_hd__mux2_1_1_X
*474 sb_0__0_\.mux_top_track_4\.out
*475 sb_0__0_\.mux_top_track_4\.sky130_fd_sc_hd__mux2_1_0_X
*476 sb_0__0_\.mux_top_track_4\.sky130_fd_sc_hd__mux2_1_1_X
*477 sb_0__0_\.mux_top_track_44\.out
*478 sb_0__0_\.mux_top_track_44\.sky130_fd_sc_hd__mux2_1_0_X
*479 sb_0__0_\.mux_top_track_44\.sky130_fd_sc_hd__mux2_1_1_X
*480 sb_0__0_\.mux_top_track_46\.out
*481 sb_0__0_\.mux_top_track_46\.sky130_fd_sc_hd__mux2_1_0_X
*482 sb_0__0_\.mux_top_track_46\.sky130_fd_sc_hd__mux2_1_1_X
*483 sb_0__0_\.mux_top_track_48\.out
*484 sb_0__0_\.mux_top_track_48\.sky130_fd_sc_hd__mux2_1_0_X
*485 sb_0__0_\.mux_top_track_48\.sky130_fd_sc_hd__mux2_1_1_X
*486 sb_0__0_\.mux_top_track_50\.out
*487 sb_0__0_\.mux_top_track_50\.sky130_fd_sc_hd__mux2_1_0_X
*488 sb_0__0_\.mux_top_track_50\.sky130_fd_sc_hd__mux2_1_1_X
*489 sb_0__0_\.mux_top_track_6\.out
*490 sb_0__0_\.mux_top_track_6\.sky130_fd_sc_hd__mux2_1_0_X
*491 sb_0__0_\.mux_top_track_6\.sky130_fd_sc_hd__mux2_1_1_X
*492 sb_0__0_\.mux_top_track_6\.sky130_fd_sc_hd__mux2_1_2_X
*493 sb_0__0_\.mux_top_track_8\.out
*494 sb_0__0_\.mux_top_track_8\.sky130_fd_sc_hd__mux2_1_0_X
*495 sb_0__0_\.mux_top_track_8\.sky130_fd_sc_hd__mux2_1_1_X
*496 ANTENNA_1
*497 ANTENNA_10
*498 ANTENNA_11
*499 ANTENNA_12
*500 ANTENNA_13
*501 ANTENNA_2
*502 ANTENNA_3
*503 ANTENNA_4
*504 ANTENNA_5
*505 ANTENNA_6
*506 ANTENNA_7
*507 ANTENNA_8
*508 ANTENNA_9
*509 ANTENNA__075__A
*510 ANTENNA__081__A
*511 ANTENNA_clkbuf_0_prog_clk_A
*512 ANTENNA_input10_A
*513 ANTENNA_input11_A
*514 ANTENNA_input12_A
*515 ANTENNA_input13_A
*516 ANTENNA_input14_A
*517 ANTENNA_input15_A
*518 ANTENNA_input16_A
*519 ANTENNA_input17_A
*520 ANTENNA_input18_A
*521 ANTENNA_input19_A
*522 ANTENNA_input1_A
*523 ANTENNA_input20_A
*524 ANTENNA_input21_A
*525 ANTENNA_input22_A
*526 ANTENNA_input23_A
*527 ANTENNA_input24_A
*528 ANTENNA_input25_A
*529 ANTENNA_input26_A
*530 ANTENNA_input27_A
*531 ANTENNA_input28_A
*532 ANTENNA_input29_A
*533 ANTENNA_input2_A
*534 ANTENNA_input30_A
*535 ANTENNA_input31_A
*536 ANTENNA_input32_A
*537 ANTENNA_input33_A
*538 ANTENNA_input34_A
*539 ANTENNA_input35_A
*540 ANTENNA_input36_A
*541 ANTENNA_input37_A
*542 ANTENNA_input38_A
*543 ANTENNA_input39_A
*544 ANTENNA_input3_A
*545 ANTENNA_input40_A
*546 ANTENNA_input41_A
*547 ANTENNA_input42_A
*548 ANTENNA_input43_A
*549 ANTENNA_input44_A
*550 ANTENNA_input45_A
*551 ANTENNA_input46_A
*552 ANTENNA_input47_A
*553 ANTENNA_input48_A
*554 ANTENNA_input49_A
*555 ANTENNA_input4_A
*556 ANTENNA_input50_A
*557 ANTENNA_input51_A
*558 ANTENNA_input52_A
*559 ANTENNA_input53_A
*560 ANTENNA_input54_A
*561 ANTENNA_input55_A
*562 ANTENNA_input56_A
*563 ANTENNA_input57_A
*564 ANTENNA_input58_A
*565 ANTENNA_input59_A
*566 ANTENNA_input5_A
*567 ANTENNA_input60_A
*568 ANTENNA_input61_A
*569 ANTENNA_input62_A
*570 ANTENNA_input63_A
*571 ANTENNA_input64_A
*572 ANTENNA_input65_A
*573 ANTENNA_input66_A
*574 ANTENNA_input67_A
*575 ANTENNA_input68_A
*576 ANTENNA_input69_A
*577 ANTENNA_input6_A
*578 ANTENNA_input70_A
*579 ANTENNA_input7_A
*580 ANTENNA_input8_A
*581 ANTENNA_input9_A
*582 ANTENNA_sb_0__0_\.mem_right_track_0\.sky130_fd_sc_hd__dfrtp_1_0__RESET_B
*583 ANTENNA_sb_0__0_\.mem_right_track_0\.sky130_fd_sc_hd__dfrtp_1_1__RESET_B
*584 ANTENNA_sb_0__0_\.mem_right_track_10\.sky130_fd_sc_hd__dfrtp_1_0__RESET_B
*585 ANTENNA_sb_0__0_\.mem_right_track_10\.sky130_fd_sc_hd__dfrtp_1_1__RESET_B
*586 ANTENNA_sb_0__0_\.mem_right_track_12\.sky130_fd_sc_hd__dfrtp_1_0__RESET_B
*587 ANTENNA_sb_0__0_\.mem_right_track_12\.sky130_fd_sc_hd__dfrtp_1_1__RESET_B
*588 ANTENNA_sb_0__0_\.mem_right_track_14\.sky130_fd_sc_hd__dfrtp_1_0__RESET_B
*589 ANTENNA_sb_0__0_\.mem_right_track_14\.sky130_fd_sc_hd__dfrtp_1_1__RESET_B
*590 ANTENNA_sb_0__0_\.mem_right_track_16\.sky130_fd_sc_hd__dfrtp_1_0__RESET_B
*591 ANTENNA_sb_0__0_\.mem_right_track_16\.sky130_fd_sc_hd__dfrtp_1_1__RESET_B
*592 ANTENNA_sb_0__0_\.mem_right_track_18\.sky130_fd_sc_hd__dfrtp_1_0__RESET_B
*593 ANTENNA_sb_0__0_\.mem_right_track_18\.sky130_fd_sc_hd__dfrtp_1_1__RESET_B
*594 ANTENNA_sb_0__0_\.mem_right_track_2\.sky130_fd_sc_hd__dfrtp_1_0__RESET_B
*595 ANTENNA_sb_0__0_\.mem_right_track_2\.sky130_fd_sc_hd__dfrtp_1_1__RESET_B
*596 ANTENNA_sb_0__0_\.mem_right_track_28\.sky130_fd_sc_hd__dfrtp_1_0__RESET_B
*597 ANTENNA_sb_0__0_\.mem_right_track_28\.sky130_fd_sc_hd__dfrtp_1_1__RESET_B
*598 ANTENNA_sb_0__0_\.mem_right_track_30\.sky130_fd_sc_hd__dfrtp_1_0__RESET_B
*599 ANTENNA_sb_0__0_\.mem_right_track_30\.sky130_fd_sc_hd__dfrtp_1_1__RESET_B
*600 ANTENNA_sb_0__0_\.mem_right_track_32\.sky130_fd_sc_hd__dfrtp_1_0__RESET_B
*601 ANTENNA_sb_0__0_\.mem_right_track_32\.sky130_fd_sc_hd__dfrtp_1_1__RESET_B
*602 ANTENNA_sb_0__0_\.mem_right_track_34\.sky130_fd_sc_hd__dfrtp_1_0__RESET_B
*603 ANTENNA_sb_0__0_\.mem_right_track_34\.sky130_fd_sc_hd__dfrtp_1_1__RESET_B
*604 ANTENNA_sb_0__0_\.mem_right_track_4\.sky130_fd_sc_hd__dfrtp_1_0__RESET_B
*605 ANTENNA_sb_0__0_\.mem_right_track_4\.sky130_fd_sc_hd__dfrtp_1_1__RESET_B
*606 ANTENNA_sb_0__0_\.mem_right_track_44\.sky130_fd_sc_hd__dfrtp_1_0__RESET_B
*607 ANTENNA_sb_0__0_\.mem_right_track_44\.sky130_fd_sc_hd__dfrtp_1_1__RESET_B
*608 ANTENNA_sb_0__0_\.mem_right_track_46\.sky130_fd_sc_hd__dfrtp_1_0__RESET_B
*609 ANTENNA_sb_0__0_\.mem_right_track_46\.sky130_fd_sc_hd__dfrtp_1_1__RESET_B
*610 ANTENNA_sb_0__0_\.mem_right_track_48\.sky130_fd_sc_hd__dfrtp_1_0__RESET_B
*611 ANTENNA_sb_0__0_\.mem_right_track_48\.sky130_fd_sc_hd__dfrtp_1_1__RESET_B
*612 ANTENNA_sb_0__0_\.mem_right_track_50\.sky130_fd_sc_hd__dfrtp_1_0__RESET_B
*613 ANTENNA_sb_0__0_\.mem_right_track_50\.sky130_fd_sc_hd__dfrtp_1_1__RESET_B
*614 ANTENNA_sb_0__0_\.mem_right_track_6\.sky130_fd_sc_hd__dfrtp_1_0__RESET_B
*615 ANTENNA_sb_0__0_\.mem_right_track_6\.sky130_fd_sc_hd__dfrtp_1_1__RESET_B
*616 ANTENNA_sb_0__0_\.mem_right_track_8\.sky130_fd_sc_hd__dfrtp_1_0__RESET_B
*617 ANTENNA_sb_0__0_\.mem_right_track_8\.sky130_fd_sc_hd__dfrtp_1_1__RESET_B
*618 ANTENNA_sb_0__0_\.mem_top_track_0\.sky130_fd_sc_hd__dfrtp_1_0__RESET_B
*619 ANTENNA_sb_0__0_\.mem_top_track_0\.sky130_fd_sc_hd__dfrtp_1_1__RESET_B
*620 ANTENNA_sb_0__0_\.mem_top_track_10\.sky130_fd_sc_hd__dfrtp_1_0__RESET_B
*621 ANTENNA_sb_0__0_\.mem_top_track_10\.sky130_fd_sc_hd__dfrtp_1_1__RESET_B
*622 ANTENNA_sb_0__0_\.mem_top_track_12\.sky130_fd_sc_hd__dfrtp_1_0__RESET_B
*623 ANTENNA_sb_0__0_\.mem_top_track_12\.sky130_fd_sc_hd__dfrtp_1_1__RESET_B
*624 ANTENNA_sb_0__0_\.mem_top_track_14\.sky130_fd_sc_hd__dfrtp_1_0__RESET_B
*625 ANTENNA_sb_0__0_\.mem_top_track_14\.sky130_fd_sc_hd__dfrtp_1_1__RESET_B
*626 ANTENNA_sb_0__0_\.mem_top_track_16\.sky130_fd_sc_hd__dfrtp_1_0__RESET_B
*627 ANTENNA_sb_0__0_\.mem_top_track_16\.sky130_fd_sc_hd__dfrtp_1_1__RESET_B
*628 ANTENNA_sb_0__0_\.mem_top_track_18\.sky130_fd_sc_hd__dfrtp_1_0__RESET_B
*629 ANTENNA_sb_0__0_\.mem_top_track_18\.sky130_fd_sc_hd__dfrtp_1_1__RESET_B
*630 ANTENNA_sb_0__0_\.mem_top_track_2\.sky130_fd_sc_hd__dfrtp_1_0__RESET_B
*631 ANTENNA_sb_0__0_\.mem_top_track_2\.sky130_fd_sc_hd__dfrtp_1_1__RESET_B
*632 ANTENNA_sb_0__0_\.mem_top_track_28\.sky130_fd_sc_hd__dfrtp_1_0__RESET_B
*633 ANTENNA_sb_0__0_\.mem_top_track_28\.sky130_fd_sc_hd__dfrtp_1_1__RESET_B
*634 ANTENNA_sb_0__0_\.mem_top_track_30\.sky130_fd_sc_hd__dfrtp_1_0__RESET_B
*635 ANTENNA_sb_0__0_\.mem_top_track_30\.sky130_fd_sc_hd__dfrtp_1_1__RESET_B
*636 ANTENNA_sb_0__0_\.mem_top_track_32\.sky130_fd_sc_hd__dfrtp_1_0__RESET_B
*637 ANTENNA_sb_0__0_\.mem_top_track_32\.sky130_fd_sc_hd__dfrtp_1_1__RESET_B
*638 ANTENNA_sb_0__0_\.mem_top_track_34\.sky130_fd_sc_hd__dfrtp_1_0__RESET_B
*639 ANTENNA_sb_0__0_\.mem_top_track_34\.sky130_fd_sc_hd__dfrtp_1_1__RESET_B
*640 ANTENNA_sb_0__0_\.mem_top_track_4\.sky130_fd_sc_hd__dfrtp_1_0__RESET_B
*641 ANTENNA_sb_0__0_\.mem_top_track_4\.sky130_fd_sc_hd__dfrtp_1_1__RESET_B
*642 ANTENNA_sb_0__0_\.mem_top_track_44\.sky130_fd_sc_hd__dfrtp_1_0__RESET_B
*643 ANTENNA_sb_0__0_\.mem_top_track_44\.sky130_fd_sc_hd__dfrtp_1_1__RESET_B
*644 ANTENNA_sb_0__0_\.mem_top_track_46\.sky130_fd_sc_hd__dfrtp_1_0__RESET_B
*645 ANTENNA_sb_0__0_\.mem_top_track_46\.sky130_fd_sc_hd__dfrtp_1_1__RESET_B
*646 ANTENNA_sb_0__0_\.mem_top_track_48\.sky130_fd_sc_hd__dfrtp_1_0__RESET_B
*647 ANTENNA_sb_0__0_\.mem_top_track_48\.sky130_fd_sc_hd__dfrtp_1_1__RESET_B
*648 ANTENNA_sb_0__0_\.mem_top_track_50\.sky130_fd_sc_hd__dfrtp_1_0__RESET_B
*649 ANTENNA_sb_0__0_\.mem_top_track_50\.sky130_fd_sc_hd__dfrtp_1_1__RESET_B
*650 ANTENNA_sb_0__0_\.mem_top_track_6\.sky130_fd_sc_hd__dfrtp_1_0__RESET_B
*651 ANTENNA_sb_0__0_\.mem_top_track_6\.sky130_fd_sc_hd__dfrtp_1_1__RESET_B
*652 ANTENNA_sb_0__0_\.mem_top_track_8\.sky130_fd_sc_hd__dfrtp_1_0__RESET_B
*653 ANTENNA_sb_0__0_\.mem_top_track_8\.sky130_fd_sc_hd__dfrtp_1_1__RESET_B
*654 ANTENNA_sb_0__0_\.mux_top_track_14\.mux_l1_in_0__A1
*655 ANTENNA_sb_0__0_\.mux_top_track_2\.mux_l1_in_0__A1
*656 ANTENNA_sb_0__0_\.mux_top_track_30\.mux_l1_in_0__A1
*657 ANTENNA_sb_0__0_\.mux_top_track_46\.mux_l1_in_0__A1
*658 ANTENNA_sb_0__0_\.mux_top_track_8\.mux_l1_in_0__A1
*659 FILLER_0_109
*660 FILLER_0_113
*661 FILLER_0_125
*662 FILLER_0_137
*663 FILLER_0_141
*664 FILLER_0_15
*665 FILLER_0_153
*666 FILLER_0_165
*667 FILLER_0_169
*668 FILLER_0_181
*669 FILLER_0_193
*670 FILLER_0_197
*671 FILLER_0_205
*672 FILLER_0_222
*673 FILLER_0_225
*674 FILLER_0_233
*675 FILLER_0_250
*676 FILLER_0_253
*677 FILLER_0_265
*678 FILLER_0_27
*679 FILLER_0_29
*680 FILLER_0_3
*681 FILLER_0_41
*682 FILLER_0_53
*683 FILLER_0_57
*684 FILLER_0_61
*685 FILLER_0_65
*686 FILLER_0_69
*687 FILLER_0_81
*688 FILLER_0_85
*689 FILLER_0_97
*690 FILLER_10_109
*691 FILLER_10_121
*692 FILLER_10_133
*693 FILLER_10_139
*694 FILLER_10_141
*695 FILLER_10_15
*696 FILLER_10_153
*697 FILLER_10_165
*698 FILLER_10_177
*699 FILLER_10_189
*700 FILLER_10_195
*701 FILLER_10_197
*702 FILLER_10_209
*703 FILLER_10_216
*704 FILLER_10_223
*705 FILLER_10_230
*706 FILLER_10_250
*707 FILLER_10_253
*708 FILLER_10_259
*709 FILLER_10_265
*710 FILLER_10_27
*711 FILLER_10_29
*712 FILLER_10_3
*713 FILLER_10_41
*714 FILLER_10_53
*715 FILLER_10_65
*716 FILLER_10_77
*717 FILLER_10_83
*718 FILLER_10_85
*719 FILLER_10_97
*720 FILLER_11_105
*721 FILLER_11_111
*722 FILLER_11_113
*723 FILLER_11_125
*724 FILLER_11_137
*725 FILLER_11_149
*726 FILLER_11_15
*727 FILLER_11_161
*728 FILLER_11_167
*729 FILLER_11_169
*730 FILLER_11_181
*731 FILLER_11_193
*732 FILLER_11_202
*733 FILLER_11_209
*734 FILLER_11_216
*735 FILLER_11_220
*736 FILLER_11_225
*737 FILLER_11_244
*738 FILLER_11_264
*739 FILLER_11_27
*740 FILLER_11_3
*741 FILLER_11_39
*742 FILLER_11_51
*743 FILLER_11_55
*744 FILLER_11_57
*745 FILLER_11_69
*746 FILLER_11_81
*747 FILLER_11_93
*748 FILLER_12_117
*749 FILLER_12_121
*750 FILLER_12_133
*751 FILLER_12_139
*752 FILLER_12_141
*753 FILLER_12_15
*754 FILLER_12_153
*755 FILLER_12_165
*756 FILLER_12_177
*757 FILLER_12_189
*758 FILLER_12_193
*759 FILLER_12_197
*760 FILLER_12_209
*761 FILLER_12_217
*762 FILLER_12_222
*763 FILLER_12_229
*764 FILLER_12_233
*765 FILLER_12_250
*766 FILLER_12_253
*767 FILLER_12_259
*768 FILLER_12_265
*769 FILLER_12_27
*770 FILLER_12_29
*771 FILLER_12_3
*772 FILLER_12_41
*773 FILLER_12_53
*774 FILLER_12_65
*775 FILLER_12_77
*776 FILLER_12_83
*777 FILLER_12_85
*778 FILLER_13_105
*779 FILLER_13_111
*780 FILLER_13_113
*781 FILLER_13_125
*782 FILLER_13_137
*783 FILLER_13_149
*784 FILLER_13_15
*785 FILLER_13_161
*786 FILLER_13_167
*787 FILLER_13_169
*788 FILLER_13_181
*789 FILLER_13_187
*790 FILLER_13_194
*791 FILLER_13_201
*792 FILLER_13_208
*793 FILLER_13_212
*794 FILLER_13_216
*795 FILLER_13_225
*796 FILLER_13_244
*797 FILLER_13_264
*798 FILLER_13_27
*799 FILLER_13_3
*800 FILLER_13_39
*801 FILLER_13_51
*802 FILLER_13_55
*803 FILLER_13_57
*804 FILLER_13_69
*805 FILLER_13_81
*806 FILLER_13_93
*807 FILLER_14_109
*808 FILLER_14_121
*809 FILLER_14_133
*810 FILLER_14_139
*811 FILLER_14_141
*812 FILLER_14_15
*813 FILLER_14_153
*814 FILLER_14_165
*815 FILLER_14_177
*816 FILLER_14_182
*817 FILLER_14_194
*818 FILLER_14_197
*819 FILLER_14_202
*820 FILLER_14_209
*821 FILLER_14_216
*822 FILLER_14_241
*823 FILLER_14_250
*824 FILLER_14_253
*825 FILLER_14_264
*826 FILLER_14_27
*827 FILLER_14_29
*828 FILLER_14_3
*829 FILLER_14_41
*830 FILLER_14_53
*831 FILLER_14_65
*832 FILLER_14_77
*833 FILLER_14_83
*834 FILLER_14_85
*835 FILLER_14_97
*836 FILLER_15_105
*837 FILLER_15_111
*838 FILLER_15_113
*839 FILLER_15_125
*840 FILLER_15_137
*841 FILLER_15_149
*842 FILLER_15_15
*843 FILLER_15_157
*844 FILLER_15_161
*845 FILLER_15_165
*846 FILLER_15_169
*847 FILLER_15_175
*848 FILLER_15_180
*849 FILLER_15_187
*850 FILLER_15_194
*851 FILLER_15_201
*852 FILLER_15_208
*853 FILLER_15_215
*854 FILLER_15_222
*855 FILLER_15_225
*856 FILLER_15_244
*857 FILLER_15_264
*858 FILLER_15_27
*859 FILLER_15_3
*860 FILLER_15_39
*861 FILLER_15_51
*862 FILLER_15_55
*863 FILLER_15_57
*864 FILLER_15_69
*865 FILLER_15_81
*866 FILLER_15_93
*867 FILLER_16_109
*868 FILLER_16_121
*869 FILLER_16_133
*870 FILLER_16_139
*871 FILLER_16_141
*872 FILLER_16_149
*873 FILLER_16_15
*874 FILLER_16_155
*875 FILLER_16_159
*876 FILLER_16_166
*877 FILLER_16_173
*878 FILLER_16_180
*879 FILLER_16_187
*880 FILLER_16_194
*881 FILLER_16_201
*882 FILLER_16_208
*883 FILLER_16_216
*884 FILLER_16_221
*885 FILLER_16_225
*886 FILLER_16_230
*887 FILLER_16_250
*888 FILLER_16_253
*889 FILLER_16_258
*890 FILLER_16_27
*891 FILLER_16_29
*892 FILLER_16_3
*893 FILLER_16_41
*894 FILLER_16_53
*895 FILLER_16_65
*896 FILLER_16_77
*897 FILLER_16_83
*898 FILLER_16_85
*899 FILLER_16_97
*900 FILLER_17_105
*901 FILLER_17_111
*902 FILLER_17_113
*903 FILLER_17_125
*904 FILLER_17_147
*905 FILLER_17_15
*906 FILLER_17_151
*907 FILLER_17_155
*908 FILLER_17_159
*909 FILLER_17_166
*910 FILLER_17_171
*911 FILLER_17_194
*912 FILLER_17_198
*913 FILLER_17_219
*914 FILLER_17_223
*915 FILLER_17_225
*916 FILLER_17_244
*917 FILLER_17_264
*918 FILLER_17_27
*919 FILLER_17_3
*920 FILLER_17_39
*921 FILLER_17_51
*922 FILLER_17_55
*923 FILLER_17_57
*924 FILLER_17_69
*925 FILLER_17_81
*926 FILLER_17_93
*927 FILLER_18_109
*928 FILLER_18_121
*929 FILLER_18_133
*930 FILLER_18_141
*931 FILLER_18_15
*932 FILLER_18_153
*933 FILLER_18_157
*934 FILLER_18_179
*935 FILLER_18_186
*936 FILLER_18_194
*937 FILLER_18_197
*938 FILLER_18_219
*939 FILLER_18_226
*940 FILLER_18_250
*941 FILLER_18_253
*942 FILLER_18_258
*943 FILLER_18_262
*944 FILLER_18_265
*945 FILLER_18_27
*946 FILLER_18_29
*947 FILLER_18_3
*948 FILLER_18_41
*949 FILLER_18_53
*950 FILLER_18_65
*951 FILLER_18_77
*952 FILLER_18_83
*953 FILLER_18_85
*954 FILLER_18_97
*955 FILLER_19_105
*956 FILLER_19_111
*957 FILLER_19_113
*958 FILLER_19_121
*959 FILLER_19_126
*960 FILLER_19_149
*961 FILLER_19_15
*962 FILLER_19_163
*963 FILLER_19_167
*964 FILLER_19_169
*965 FILLER_19_191
*966 FILLER_19_204
*967 FILLER_19_217
*968 FILLER_19_223
*969 FILLER_19_225
*970 FILLER_19_247
*971 FILLER_19_254
*972 FILLER_19_261
*973 FILLER_19_265
*974 FILLER_19_27
*975 FILLER_19_3
*976 FILLER_19_39
*977 FILLER_19_51
*978 FILLER_19_55
*979 FILLER_19_57
*980 FILLER_19_69
*981 FILLER_19_81
*982 FILLER_19_93
*983 FILLER_1_105
*984 FILLER_1_111
*985 FILLER_1_113
*986 FILLER_1_125
*987 FILLER_1_137
*988 FILLER_1_149
*989 FILLER_1_15
*990 FILLER_1_161
*991 FILLER_1_167
*992 FILLER_1_169
*993 FILLER_1_181
*994 FILLER_1_185
*995 FILLER_1_202
*996 FILLER_1_222
*997 FILLER_1_225
*998 FILLER_1_244
*999 FILLER_1_264
*1000 FILLER_1_27
*1001 FILLER_1_3
*1002 FILLER_1_39
*1003 FILLER_1_51
*1004 FILLER_1_55
*1005 FILLER_1_57
*1006 FILLER_1_69
*1007 FILLER_1_81
*1008 FILLER_1_93
*1009 FILLER_20_112
*1010 FILLER_20_136
*1011 FILLER_20_141
*1012 FILLER_20_15
*1013 FILLER_20_163
*1014 FILLER_20_187
*1015 FILLER_20_194
*1016 FILLER_20_199
*1017 FILLER_20_222
*1018 FILLER_20_246
*1019 FILLER_20_253
*1020 FILLER_20_264
*1021 FILLER_20_27
*1022 FILLER_20_29
*1023 FILLER_20_3
*1024 FILLER_20_41
*1025 FILLER_20_53
*1026 FILLER_20_65
*1027 FILLER_20_77
*1028 FILLER_20_83
*1029 FILLER_20_85
*1030 FILLER_20_91
*1031 FILLER_21_105
*1032 FILLER_21_113
*1033 FILLER_21_119
*1034 FILLER_21_126
*1035 FILLER_21_133
*1036 FILLER_21_15
*1037 FILLER_21_157
*1038 FILLER_21_161
*1039 FILLER_21_166
*1040 FILLER_21_171
*1041 FILLER_21_182
*1042 FILLER_21_206
*1043 FILLER_21_210
*1044 FILLER_21_222
*1045 FILLER_21_225
*1046 FILLER_21_231