*SPEF "ieee 1481-1999"
*DESIGN "bottom_left_tile"
*DATE "11:11:11 Fri 11 11, 1111"
*VENDOR "OpenRCX"
*PROGRAM "Parallel Extraction"
*VERSION "1.0"
*DESIGN_FLOW "NAME_SCOPE LOCAL" "PIN_CAP NONE"
*DIVIDER /
*DELIMITER :
*BUS_DELIMITER []
*T_UNIT 1 NS
*C_UNIT 1 PF
*R_UNIT 1 OHM
*L_UNIT 1 HENRY

*NAME_MAP
*3 ccff_head
*4 ccff_tail
*5 chanx_right_in[0]
*6 chanx_right_in[10]
*7 chanx_right_in[11]
*8 chanx_right_in[12]
*9 chanx_right_in[13]
*10 chanx_right_in[14]
*11 chanx_right_in[15]
*12 chanx_right_in[16]
*13 chanx_right_in[17]
*14 chanx_right_in[18]
*15 chanx_right_in[19]
*16 chanx_right_in[1]
*17 chanx_right_in[20]
*18 chanx_right_in[21]
*19 chanx_right_in[22]
*20 chanx_right_in[23]
*21 chanx_right_in[24]
*22 chanx_right_in[25]
*23 chanx_right_in[26]
*24 chanx_right_in[27]
*25 chanx_right_in[28]
*26 chanx_right_in[29]
*27 chanx_right_in[2]
*28 chanx_right_in[3]
*29 chanx_right_in[4]
*30 chanx_right_in[5]
*31 chanx_right_in[6]
*32 chanx_right_in[7]
*33 chanx_right_in[8]
*34 chanx_right_in[9]
*35 chanx_right_out[0]
*36 chanx_right_out[10]
*37 chanx_right_out[11]
*38 chanx_right_out[12]
*39 chanx_right_out[13]
*40 chanx_right_out[14]
*41 chanx_right_out[15]
*42 chanx_right_out[16]
*43 chanx_right_out[17]
*44 chanx_right_out[18]
*45 chanx_right_out[19]
*46 chanx_right_out[1]
*47 chanx_right_out[20]
*48 chanx_right_out[21]
*49 chanx_right_out[22]
*50 chanx_right_out[23]
*51 chanx_right_out[24]
*52 chanx_right_out[25]
*53 chanx_right_out[26]
*54 chanx_right_out[27]
*55 chanx_right_out[28]
*56 chanx_right_out[29]
*57 chanx_right_out[2]
*58 chanx_right_out[3]
*59 chanx_right_out[4]
*60 chanx_right_out[5]
*61 chanx_right_out[6]
*62 chanx_right_out[7]
*63 chanx_right_out[8]
*64 chanx_right_out[9]
*65 chany_top_in[0]
*66 chany_top_in[10]
*67 chany_top_in[11]
*68 chany_top_in[12]
*69 chany_top_in[13]
*70 chany_top_in[14]
*71 chany_top_in[15]
*72 chany_top_in[16]
*73 chany_top_in[17]
*74 chany_top_in[18]
*75 chany_top_in[19]
*76 chany_top_in[1]
*77 chany_top_in[20]
*78 chany_top_in[21]
*79 chany_top_in[22]
*80 chany_top_in[23]
*81 chany_top_in[24]
*82 chany_top_in[25]
*83 chany_top_in[26]
*84 chany_top_in[27]
*85 chany_top_in[28]
*86 chany_top_in[29]
*87 chany_top_in[2]
*88 chany_top_in[3]
*89 chany_top_in[4]
*90 chany_top_in[5]
*91 chany_top_in[6]
*92 chany_top_in[7]
*93 chany_top_in[8]
*94 chany_top_in[9]
*95 chany_top_out[0]
*96 chany_top_out[10]
*97 chany_top_out[11]
*98 chany_top_out[12]
*99 chany_top_out[13]
*100 chany_top_out[14]
*101 chany_top_out[15]
*102 chany_top_out[16]
*103 chany_top_out[17]
*104 chany_top_out[18]
*105 chany_top_out[19]
*106 chany_top_out[1]
*107 chany_top_out[20]
*108 chany_top_out[21]
*109 chany_top_out[22]
*110 chany_top_out[23]
*111 chany_top_out[24]
*112 chany_top_out[25]
*113 chany_top_out[26]
*114 chany_top_out[27]
*115 chany_top_out[28]
*116 chany_top_out[29]
*117 chany_top_out[2]
*118 chany_top_out[3]
*119 chany_top_out[4]
*120 chany_top_out[5]
*121 chany_top_out[6]
*122 chany_top_out[7]
*123 chany_top_out[8]
*124 chany_top_out[9]
*125 prog_clk
*126 prog_reset_top_in
*127 reset_top_in
*128 right_bottom_grid_top_width_0_height_0_subtile_0__pin_inpad_0_
*129 right_bottom_grid_top_width_0_height_0_subtile_1__pin_inpad_0_
*130 right_bottom_grid_top_width_0_height_0_subtile_2__pin_inpad_0_
*131 right_bottom_grid_top_width_0_height_0_subtile_3__pin_inpad_0_
*132 test_enable_top_in
*133 top_left_grid_right_width_0_height_0_subtile_0__pin_inpad_0_
*134 top_left_grid_right_width_0_height_0_subtile_1__pin_inpad_0_
*135 top_left_grid_right_width_0_height_0_subtile_2__pin_inpad_0_
*136 top_left_grid_right_width_0_height_0_subtile_3__pin_inpad_0_
*137 clknet_0_prog_clk
*138 clknet_3_0__leaf_prog_clk
*139 clknet_3_1__leaf_prog_clk
*140 clknet_3_2__leaf_prog_clk
*141 clknet_3_3__leaf_prog_clk
*142 clknet_3_4__leaf_prog_clk
*143 clknet_3_5__leaf_prog_clk
*144 clknet_3_6__leaf_prog_clk
*145 clknet_3_7__leaf_prog_clk
*146 net1
*147 net10
*148 net100
*149 net101
*150 net102
*151 net103
*152 net104
*153 net105
*154 net106
*155 net107
*156 net108
*157 net109
*158 net11
*159 net110
*160 net111
*161 net112
*162 net113
*163 net114
*164 net115
*165 net116
*166 net117
*167 net118
*168 net119
*169 net12
*170 net120
*171 net121
*172 net122
*173 net123
*174 net124
*175 net125
*176 net126
*177 net127
*178 net128
*179 net129
*180 net13
*181 net130
*182 net131
*183 net132
*184 net133
*185 net134
*186 net135
*187 net136
*188 net137
*189 net138
*190 net139
*191 net14
*192 net140
*193 net141
*194 net142
*195 net143
*196 net144
*197 net145
*198 net146
*199 net147
*200 net148
*201 net149
*202 net15
*203 net150
*204 net151
*205 net152
*206 net153
*207 net154
*208 net155
*209 net156
*210 net157
*211 net158
*212 net159
*213 net16
*214 net160
*215 net161
*216 net162
*217 net163
*218 net164
*219 net165
*220 net166
*221 net167
*222 net17
*223 net18
*224 net19
*225 net2
*226 net20
*227 net21
*228 net22
*229 net23
*230 net24
*231 net25
*232 net26
*233 net27
*234 net28
*235 net29
*236 net3
*237 net30
*238 net31
*239 net32
*240 net33
*241 net34
*242 net35
*243 net36
*244 net37
*245 net38
*246 net39
*247 net4
*248 net40
*249 net41
*250 net42
*251 net43
*252 net44
*253 net45
*254 net46
*255 net47
*256 net48
*257 net49
*258 net5
*259 net50
*260 net51
*261 net52
*262 net53
*263 net54
*264 net55
*265 net56
*266 net57
*267 net58
*268 net59
*269 net6
*270 net60
*271 net61
*272 net62
*273 net63
*274 net64
*275 net65
*276 net66
*277 net67
*278 net68
*279 net69
*280 net7
*281 net70
*282 net71
*283 net72
*284 net73
*285 net74
*286 net75
*287 net76
*288 net77
*289 net78
*290 net79
*291 net8
*292 net80
*293 net81
*294 net82
*295 net83
*296 net84
*297 net85
*298 net86
*299 net87
*300 net88
*301 net89
*302 net9
*303 net90
*304 net91
*305 net92
*306 net93
*307 net94
*308 net95
*309 net96
*310 net97
*311 net98
*312 net99
*313 sb_0__0_\.mem_right_track_0\.ccff_head
*314 sb_0__0_\.mem_right_track_0\.ccff_tail
*315 sb_0__0_\.mem_right_track_0\.mem_out\[0\]
*316 sb_0__0_\.mem_right_track_10\.ccff_head
*317 sb_0__0_\.mem_right_track_10\.ccff_tail
*318 sb_0__0_\.mem_right_track_10\.mem_out\[0\]
*319 sb_0__0_\.mem_right_track_12\.ccff_tail
*320 sb_0__0_\.mem_right_track_12\.mem_out\[0\]
*321 sb_0__0_\.mem_right_track_14\.ccff_tail
*322 sb_0__0_\.mem_right_track_14\.mem_out\[0\]
*323 sb_0__0_\.mem_right_track_16\.ccff_tail
*324 sb_0__0_\.mem_right_track_16\.mem_out\[0\]
*325 sb_0__0_\.mem_right_track_18\.ccff_tail
*326 sb_0__0_\.mem_right_track_18\.mem_out\[0\]
*327 sb_0__0_\.mem_right_track_2\.ccff_tail
*328 sb_0__0_\.mem_right_track_2\.mem_out\[0\]
*329 sb_0__0_\.mem_right_track_28\.ccff_tail
*330 sb_0__0_\.mem_right_track_28\.mem_out\[0\]
*331 sb_0__0_\.mem_right_track_30\.ccff_tail
*332 sb_0__0_\.mem_right_track_30\.mem_out\[0\]
*333 sb_0__0_\.mem_right_track_32\.ccff_tail
*334 sb_0__0_\.mem_right_track_32\.mem_out\[0\]
*335 sb_0__0_\.mem_right_track_34\.ccff_tail
*336 sb_0__0_\.mem_right_track_34\.mem_out\[0\]
*337 sb_0__0_\.mem_right_track_4\.ccff_tail
*338 sb_0__0_\.mem_right_track_4\.mem_out\[0\]
*339 sb_0__0_\.mem_right_track_44\.ccff_tail
*340 sb_0__0_\.mem_right_track_44\.mem_out\[0\]
*341 sb_0__0_\.mem_right_track_46\.ccff_tail
*342 sb_0__0_\.mem_right_track_46\.mem_out\[0\]
*343 sb_0__0_\.mem_right_track_48\.ccff_tail
*344 sb_0__0_\.mem_right_track_48\.mem_out\[0\]
*345 sb_0__0_\.mem_right_track_50\.mem_out\[0\]
*346 sb_0__0_\.mem_right_track_6\.ccff_tail
*347 sb_0__0_\.mem_right_track_6\.mem_out\[0\]
*348 sb_0__0_\.mem_right_track_8\.mem_out\[0\]
*349 sb_0__0_\.mem_top_track_0\.ccff_tail
*350 sb_0__0_\.mem_top_track_0\.mem_out\[0\]
*351 sb_0__0_\.mem_top_track_10\.ccff_head
*352 sb_0__0_\.mem_top_track_10\.ccff_tail
*353 sb_0__0_\.mem_top_track_10\.mem_out\[0\]
*354 sb_0__0_\.mem_top_track_12\.ccff_tail
*355 sb_0__0_\.mem_top_track_12\.mem_out\[0\]
*356 sb_0__0_\.mem_top_track_14\.ccff_tail
*357 sb_0__0_\.mem_top_track_14\.mem_out\[0\]
*358 sb_0__0_\.mem_top_track_16\.ccff_tail
*359 sb_0__0_\.mem_top_track_16\.mem_out\[0\]
*360 sb_0__0_\.mem_top_track_18\.ccff_tail
*361 sb_0__0_\.mem_top_track_18\.mem_out\[0\]
*362 sb_0__0_\.mem_top_track_2\.ccff_tail
*363 sb_0__0_\.mem_top_track_2\.mem_out\[0\]
*364 sb_0__0_\.mem_top_track_28\.ccff_tail
*365 sb_0__0_\.mem_top_track_28\.mem_out\[0\]
*366 sb_0__0_\.mem_top_track_30\.ccff_tail
*367 sb_0__0_\.mem_top_track_30\.mem_out\[0\]
*368 sb_0__0_\.mem_top_track_32\.ccff_tail
*369 sb_0__0_\.mem_top_track_32\.mem_out\[0\]
*370 sb_0__0_\.mem_top_track_34\.ccff_tail
*371 sb_0__0_\.mem_top_track_34\.mem_out\[0\]
*372 sb_0__0_\.mem_top_track_4\.ccff_tail
*373 sb_0__0_\.mem_top_track_4\.mem_out\[0\]
*374 sb_0__0_\.mem_top_track_44\.ccff_tail
*375 sb_0__0_\.mem_top_track_44\.mem_out\[0\]
*376 sb_0__0_\.mem_top_track_46\.ccff_tail
*377 sb_0__0_\.mem_top_track_46\.mem_out\[0\]
*378 sb_0__0_\.mem_top_track_48\.ccff_tail
*379 sb_0__0_\.mem_top_track_48\.mem_out\[0\]
*380 sb_0__0_\.mem_top_track_50\.mem_out\[0\]
*381 sb_0__0_\.mem_top_track_6\.ccff_tail
*382 sb_0__0_\.mem_top_track_6\.mem_out\[0\]
*383 sb_0__0_\.mem_top_track_8\.mem_out\[0\]
*384 sb_0__0_\.mux_right_track_0\.out
*385 sb_0__0_\.mux_right_track_0\.sky130_fd_sc_hd__mux2_1_0_X
*386 sb_0__0_\.mux_right_track_0\.sky130_fd_sc_hd__mux2_1_1_X
*387 sb_0__0_\.mux_right_track_0\.sky130_fd_sc_hd__mux2_1_2_X
*388 sb_0__0_\.mux_right_track_10\.out
*389 sb_0__0_\.mux_right_track_10\.sky130_fd_sc_hd__mux2_1_0_X
*390 sb_0__0_\.mux_right_track_10\.sky130_fd_sc_hd__mux2_1_1_X
*391 sb_0__0_\.mux_right_track_12\.out
*392 sb_0__0_\.mux_right_track_12\.sky130_fd_sc_hd__mux2_1_0_X
*393 sb_0__0_\.mux_right_track_12\.sky130_fd_sc_hd__mux2_1_1_X
*394 sb_0__0_\.mux_right_track_14\.out
*395 sb_0__0_\.mux_right_track_14\.sky130_fd_sc_hd__mux2_1_0_X
*396 sb_0__0_\.mux_right_track_14\.sky130_fd_sc_hd__mux2_1_1_X
*397 sb_0__0_\.mux_right_track_16\.out
*398 sb_0__0_\.mux_right_track_16\.sky130_fd_sc_hd__mux2_1_0_X
*399 sb_0__0_\.mux_right_track_16\.sky130_fd_sc_hd__mux2_1_1_X
*400 sb_0__0_\.mux_right_track_18\.out
*401 sb_0__0_\.mux_right_track_18\.sky130_fd_sc_hd__mux2_1_0_X
*402 sb_0__0_\.mux_right_track_18\.sky130_fd_sc_hd__mux2_1_1_X
*403 sb_0__0_\.mux_right_track_2\.out
*404 sb_0__0_\.mux_right_track_2\.sky130_fd_sc_hd__mux2_1_0_X
*405 sb_0__0_\.mux_right_track_2\.sky130_fd_sc_hd__mux2_1_1_X
*406 sb_0__0_\.mux_right_track_28\.out
*407 sb_0__0_\.mux_right_track_28\.sky130_fd_sc_hd__mux2_1_0_X
*408 sb_0__0_\.mux_right_track_28\.sky130_fd_sc_hd__mux2_1_1_X
*409 sb_0__0_\.mux_right_track_30\.out
*410 sb_0__0_\.mux_right_track_30\.sky130_fd_sc_hd__mux2_1_0_X
*411 sb_0__0_\.mux_right_track_30\.sky130_fd_sc_hd__mux2_1_1_X
*412 sb_0__0_\.mux_right_track_32\.out
*413 sb_0__0_\.mux_right_track_32\.sky130_fd_sc_hd__mux2_1_0_X
*414 sb_0__0_\.mux_right_track_32\.sky130_fd_sc_hd__mux2_1_1_X
*415 sb_0__0_\.mux_right_track_34\.out
*416 sb_0__0_\.mux_right_track_34\.sky130_fd_sc_hd__mux2_1_0_X
*417 sb_0__0_\.mux_right_track_34\.sky130_fd_sc_hd__mux2_1_1_X
*418 sb_0__0_\.mux_right_track_4\.out
*419 sb_0__0_\.mux_right_track_4\.sky130_fd_sc_hd__mux2_1_0_X
*420 sb_0__0_\.mux_right_track_4\.sky130_fd_sc_hd__mux2_1_1_X
*421 sb_0__0_\.mux_right_track_44\.out
*422 sb_0__0_\.mux_right_track_44\.sky130_fd_sc_hd__mux2_1_0_X
*423 sb_0__0_\.mux_right_track_44\.sky130_fd_sc_hd__mux2_1_1_X
*424 sb_0__0_\.mux_right_track_46\.out
*425 sb_0__0_\.mux_right_track_46\.sky130_fd_sc_hd__mux2_1_0_X
*426 sb_0__0_\.mux_right_track_46\.sky130_fd_sc_hd__mux2_1_1_X
*427 sb_0__0_\.mux_right_track_48\.out
*428 sb_0__0_\.mux_right_track_48\.sky130_fd_sc_hd__mux2_1_0_X
*429 sb_0__0_\.mux_right_track_48\.sky130_fd_sc_hd__mux2_1_1_X
*430 sb_0__0_\.mux_right_track_50\.out
*431 sb_0__0_\.mux_right_track_50\.sky130_fd_sc_hd__mux2_1_0_X
*432 sb_0__0_\.mux_right_track_50\.sky130_fd_sc_hd__mux2_1_1_X
*433 sb_0__0_\.mux_right_track_6\.out
*434 sb_0__0_\.mux_right_track_6\.sky130_fd_sc_hd__mux2_1_0_X
*435 sb_0__0_\.mux_right_track_6\.sky130_fd_sc_hd__mux2_1_1_X
*436 sb_0__0_\.mux_right_track_6\.sky130_fd_sc_hd__mux2_1_2_X
*437 sb_0__0_\.mux_right_track_8\.out
*438 sb_0__0_\.mux_right_track_8\.sky130_fd_sc_hd__mux2_1_0_X
*439 sb_0__0_\.mux_right_track_8\.sky130_fd_sc_hd__mux2_1_1_X
*440 sb_0__0_\.mux_top_track_0\.out
*441 sb_0__0_\.mux_top_track_0\.sky130_fd_sc_hd__mux2_1_0_X
*442 sb_0__0_\.mux_top_track_0\.sky130_fd_sc_hd__mux2_1_1_X
*443 sb_0__0_\.mux_top_track_0\.sky130_fd_sc_hd__mux2_1_2_X
*444 sb_0__0_\.mux_top_track_10\.out
*445 sb_0__0_\.mux_top_track_10\.sky130_fd_sc_hd__mux2_1_0_X
*446 sb_0__0_\.mux_top_track_10\.sky130_fd_sc_hd__mux2_1_1_X
*447 sb_0__0_\.mux_top_track_12\.out
*448 sb_0__0_\.mux_top_track_12\.sky130_fd_sc_hd__mux2_1_0_X
*449 sb_0__0_\.mux_top_track_12\.sky130_fd_sc_hd__mux2_1_1_X
*450 sb_0__0_\.mux_top_track_14\.out
*451 sb_0__0_\.mux_top_track_14\.sky130_fd_sc_hd__mux2_1_0_X
*452 sb_0__0_\.mux_top_track_14\.sky130_fd_sc_hd__mux2_1_1_X
*453 sb_0__0_\.mux_top_track_16\.out
*454 sb_0__0_\.mux_top_track_16\.sky130_fd_sc_hd__mux2_1_0_X
*455 sb_0__0_\.mux_top_track_16\.sky130_fd_sc_hd__mux2_1_1_X
*456 sb_0__0_\.mux_top_track_18\.out
*457 sb_0__0_\.mux_top_track_18\.sky130_fd_sc_hd__mux2_1_0_X
*458 sb_0__0_\.mux_top_track_18\.sky130_fd_sc_hd__mux2_1_1_X
*459 sb_0__0_\.mux_top_track_2\.out
*460 sb_0__0_\.mux_top_track_2\.sky130_fd_sc_hd__mux2_1_0_X
*461 sb_0__0_\.mux_top_track_2\.sky130_fd_sc_hd__mux2_1_1_X
*462 sb_0__0_\.mux_top_track_28\.out
*463 sb_0__0_\.mux_top_track_28\.sky130_fd_sc_hd__mux2_1_0_X
*464 sb_0__0_\.mux_top_track_28\.sky130_fd_sc_hd__mux2_1_1_X
*465 sb_0__0_\.mux_top_track_30\.out
*466 sb_0__0_\.mux_top_track_30\.sky130_fd_sc_hd__mux2_1_0_X
*467 sb_0__0_\.mux_top_track_30\.sky130_fd_sc_hd__mux2_1_1_X
*468 sb_0__0_\.mux_top_track_32\.out
*469 sb_0__0_\.mux_top_track_32\.sky130_fd_sc_hd__mux2_1_0_X
*470 sb_0__0_\.mux_top_track_32\.sky130_fd_sc_hd__mux2_1_1_X
*471 sb_0__0_\.mux_top_track_34\.out
*472 sb_0__0_\.mux_top_track_34\.sky130_fd_sc_hd__mux2_1_0_X
*473 sb_0__0_\.mux_top_track_34\.sky130_fd_sc_hd__mux2_1_1_X
*474 sb_0__0_\.mux_top_track_4\.out
*475 sb_0__0_\.mux_top_track_4\.sky130_fd_sc_hd__mux2_1_0_X
*476 sb_0__0_\.mux_top_track_4\.sky130_fd_sc_hd__mux2_1_1_X
*477 sb_0__0_\.mux_top_track_44\.out
*478 sb_0__0_\.mux_top_track_44\.sky130_fd_sc_hd__mux2_1_0_X
*479 sb_0__0_\.mux_top_track_44\.sky130_fd_sc_hd__mux2_1_1_X
*480 sb_0__0_\.mux_top_track_46\.out
*481 sb_0__0_\.mux_top_track_46\.sky130_fd_sc_hd__mux2_1_0_X
*482 sb_0__0_\.mux_top_track_46\.sky130_fd_sc_hd__mux2_1_1_X
*483 sb_0__0_\.mux_top_track_48\.out
*484 sb_0__0_\.mux_top_track_48\.sky130_fd_sc_hd__mux2_1_0_X
*485 sb_0__0_\.mux_top_track_48\.sky130_fd_sc_hd__mux2_1_1_X
*486 sb_0__0_\.mux_top_track_50\.out
*487 sb_0__0_\.mux_top_track_50\.sky130_fd_sc_hd__mux2_1_0_X
*488 sb_0__0_\.mux_top_track_50\.sky130_fd_sc_hd__mux2_1_1_X
*489 sb_0__0_\.mux_top_track_6\.out
*490 sb_0__0_\.mux_top_track_6\.sky130_fd_sc_hd__mux2_1_0_X
*491 sb_0__0_\.mux_top_track_6\.sky130_fd_sc_hd__mux2_1_1_X
*492 sb_0__0_\.mux_top_track_6\.sky130_fd_sc_hd__mux2_1_2_X
*493 sb_0__0_\.mux_top_track_8\.out
*494 sb_0__0_\.mux_top_track_8\.sky130_fd_sc_hd__mux2_1_0_X
*495 sb_0__0_\.mux_top_track_8\.sky130_fd_sc_hd__mux2_1_1_X
*496 ANTENNA_1
*497 ANTENNA_10
*498 ANTENNA_11
*499 ANTENNA_12
*500 ANTENNA_13
*501 ANTENNA_14
*502 ANTENNA_15
*503 ANTENNA_16
*504 ANTENNA_17
*505 ANTENNA_18
*506 ANTENNA_19
*507 ANTENNA_2
*508 ANTENNA_20
*509 ANTENNA_21
*510 ANTENNA_22
*511 ANTENNA_23
*512 ANTENNA_24
*513 ANTENNA_25
*514 ANTENNA_26
*515 ANTENNA_27
*516 ANTENNA_28
*517 ANTENNA_29
*518 ANTENNA_3
*519 ANTENNA_30
*520 ANTENNA_31
*521 ANTENNA_32
*522 ANTENNA_33
*523 ANTENNA_34
*524 ANTENNA_35
*525 ANTENNA_36
*526 ANTENNA_37
*527 ANTENNA_38
*528 ANTENNA_39
*529 ANTENNA_4
*530 ANTENNA_40
*531 ANTENNA_41
*532 ANTENNA_42
*533 ANTENNA_43
*534 ANTENNA_44
*535 ANTENNA_45
*536 ANTENNA_46
*537 ANTENNA_47
*538 ANTENNA_48
*539 ANTENNA_49
*540 ANTENNA_5
*541 ANTENNA_50
*542 ANTENNA_51
*543 ANTENNA_52
*544 ANTENNA_53
*545 ANTENNA_54
*546 ANTENNA_55
*547 ANTENNA_56
*548 ANTENNA_57
*549 ANTENNA_58
*550 ANTENNA_59
*551 ANTENNA_6
*552 ANTENNA_60
*553 ANTENNA_7
*554 ANTENNA_8
*555 ANTENNA_9
*556 FILLER_0_109
*557 FILLER_0_113
*558 FILLER_0_125
*559 FILLER_0_137
*560 FILLER_0_141
*561 FILLER_0_15
*562 FILLER_0_153
*563 FILLER_0_165
*564 FILLER_0_169
*565 FILLER_0_181
*566 FILLER_0_193
*567 FILLER_0_197
*568 FILLER_0_205
*569 FILLER_0_222
*570 FILLER_0_225
*571 FILLER_0_233
*572 FILLER_0_250
*573 FILLER_0_253
*574 FILLER_0_258
*575 FILLER_0_27
*576 FILLER_0_29
*577 FILLER_0_3
*578 FILLER_0_41
*579 FILLER_0_53
*580 FILLER_0_57
*581 FILLER_0_61
*582 FILLER_0_65
*583 FILLER_0_77
*584 FILLER_0_83
*585 FILLER_0_85
*586 FILLER_0_97
*587 FILLER_10_109
*588 FILLER_10_121
*589 FILLER_10_133
*590 FILLER_10_139
*591 FILLER_10_141
*592 FILLER_10_15
*593 FILLER_10_153
*594 FILLER_10_165
*595 FILLER_10_177
*596 FILLER_10_189
*597 FILLER_10_195
*598 FILLER_10_197
*599 FILLER_10_209
*600 FILLER_10_216
*601 FILLER_10_223
*602 FILLER_10_230
*603 FILLER_10_250
*604 FILLER_10_253
*605 FILLER_10_258
*606 FILLER_10_27
*607 FILLER_10_29
*608 FILLER_10_3
*609 FILLER_10_41
*610 FILLER_10_53
*611 FILLER_10_65
*612 FILLER_10_77
*613 FILLER_10_83
*614 FILLER_10_85
*615 FILLER_10_97
*616 FILLER_11_105
*617 FILLER_11_111
*618 FILLER_11_113
*619 FILLER_11_125
*620 FILLER_11_137
*621 FILLER_11_149
*622 FILLER_11_15
*623 FILLER_11_161
*624 FILLER_11_167
*625 FILLER_11_169
*626 FILLER_11_181
*627 FILLER_11_193
*628 FILLER_11_208
*629 FILLER_11_215
*630 FILLER_11_222
*631 FILLER_11_225
*632 FILLER_11_244
*633 FILLER_11_264
*634 FILLER_11_27
*635 FILLER_11_3
*636 FILLER_11_39
*637 FILLER_11_51
*638 FILLER_11_55
*639 FILLER_11_57
*640 FILLER_11_69
*641 FILLER_11_81
*642 FILLER_11_93
*643 FILLER_12_118
*644 FILLER_12_130
*645 FILLER_12_138
*646 FILLER_12_141
*647 FILLER_12_15
*648 FILLER_12_153
*649 FILLER_12_165
*650 FILLER_12_177
*651 FILLER_12_189
*652 FILLER_12_195
*653 FILLER_12_197
*654 FILLER_12_209
*655 FILLER_12_216
*656 FILLER_12_223
*657 FILLER_12_230
*658 FILLER_12_250
*659 FILLER_12_253
*660 FILLER_12_259
*661 FILLER_12_265
*662 FILLER_12_27
*663 FILLER_12_29
*664 FILLER_12_3
*665 FILLER_12_41
*666 FILLER_12_53
*667 FILLER_12_65
*668 FILLER_12_77
*669 FILLER_12_83
*670 FILLER_12_85
*671 FILLER_12_97
*672 FILLER_13_105
*673 FILLER_13_111
*674 FILLER_13_113
*675 FILLER_13_125
*676 FILLER_13_137
*677 FILLER_13_149
*678 FILLER_13_15
*679 FILLER_13_161
*680 FILLER_13_167
*681 FILLER_13_169
*682 FILLER_13_177
*683 FILLER_13_180
*684 FILLER_13_187
*685 FILLER_13_194
*686 FILLER_13_201
*687 FILLER_13_208
*688 FILLER_13_215
*689 FILLER_13_222
*690 FILLER_13_225
*691 FILLER_13_244
*692 FILLER_13_264
*693 FILLER_13_27
*694 FILLER_13_3
*695 FILLER_13_39
*696 FILLER_13_51
*697 FILLER_13_55
*698 FILLER_13_57
*699 FILLER_13_69
*700 FILLER_13_81
*701 FILLER_13_93
*702 FILLER_14_109
*703 FILLER_14_121
*704 FILLER_14_133
*705 FILLER_14_139
*706 FILLER_14_141
*707 FILLER_14_15
*708 FILLER_14_153
*709 FILLER_14_165
*710 FILLER_14_173
*711 FILLER_14_180
*712 FILLER_14_194
*713 FILLER_14_197
*714 FILLER_14_202
*715 FILLER_14_211
*716 FILLER_14_240
*717 FILLER_14_246
*718 FILLER_14_250
*719 FILLER_14_253
*720 FILLER_14_264
*721 FILLER_14_27
*722 FILLER_14_29
*723 FILLER_14_3
*724 FILLER_14_41
*725 FILLER_14_53
*726 FILLER_14_65
*727 FILLER_14_77
*728 FILLER_14_83
*729 FILLER_14_85
*730 FILLER_14_97
*731 FILLER_15_105
*732 FILLER_15_111
*733 FILLER_15_113
*734 FILLER_15_125
*735 FILLER_15_137
*736 FILLER_15_149
*737 FILLER_15_15
*738 FILLER_15_163
*739 FILLER_15_167
*740 FILLER_15_169
*741 FILLER_15_173
*742 FILLER_15_179
*743 FILLER_15_183
*744 FILLER_15_187
*745 FILLER_15_191
*746 FILLER_15_195
*747 FILLER_15_202
*748 FILLER_15_209
*749 FILLER_15_216
*750 FILLER_15_225
*751 FILLER_15_244
*752 FILLER_15_264
*753 FILLER_15_27
*754 FILLER_15_3
*755 FILLER_15_39
*756 FILLER_15_51
*757 FILLER_15_55
*758 FILLER_15_57
*759 FILLER_15_69
*760 FILLER_15_81
*761 FILLER_15_93
*762 FILLER_16_109
*763 FILLER_16_121
*764 FILLER_16_133
*765 FILLER_16_139
*766 FILLER_16_141
*767 FILLER_16_15
*768 FILLER_16_153
*769 FILLER_16_163
*770 FILLER_16_170
*771 FILLER_16_194
*772 FILLER_16_197
*773 FILLER_16_203
*774 FILLER_16_208
*775 FILLER_16_216
*776 FILLER_16_221
*777 FILLER_16_228
*778 FILLER_16_250
*779 FILLER_16_253
*780 FILLER_16_258
*781 FILLER_16_27
*782 FILLER_16_29
*783 FILLER_16_3
*784 FILLER_16_41
*785 FILLER_16_53
*786 FILLER_16_65
*787 FILLER_16_77
*788 FILLER_16_83
*789 FILLER_16_85
*790 FILLER_16_97
*791 FILLER_17_105
*792 FILLER_17_111
*793 FILLER_17_113
*794 FILLER_17_125
*795 FILLER_17_137
*796 FILLER_17_141
*797 FILLER_17_148
*798 FILLER_17_15
*799 FILLER_17_155
*800 FILLER_17_161
*801 FILLER_17_166
*802 FILLER_17_169
*803 FILLER_17_191
*804 FILLER_17_197
*805 FILLER_17_218
*806 FILLER_17_244
*807 FILLER_17_264
*808 FILLER_17_27
*809 FILLER_17_3
*810 FILLER_17_39
*811 FILLER_17_51
*812 FILLER_17_55
*813 FILLER_17_57
*814 FILLER_17_69
*815 FILLER_17_81
*816 FILLER_17_93
*817 FILLER_18_109
*818 FILLER_18_121
*819 FILLER_18_133
*820 FILLER_18_139
*821 FILLER_18_141
*822 FILLER_18_15
*823 FILLER_18_153
*824 FILLER_18_179
*825 FILLER_18_186
*826 FILLER_18_194
*827 FILLER_18_197
*828 FILLER_18_228
*829 FILLER_18_250
*830 FILLER_18_253
*831 FILLER_18_258
*832 FILLER_18_27
*833 FILLER_18_29
*834 FILLER_18_3
*835 FILLER_18_41
*836 FILLER_18_53
*837 FILLER_18_65
*838 FILLER_18_77
*839 FILLER_18_83
*840 FILLER_18_85
*841 FILLER_18_97
*842 FILLER_19_105
*843 FILLER_19_111
*844 FILLER_19_113
*845 FILLER_19_125
*846 FILLER_19_148
*847 FILLER_19_15
*848 FILLER_19_162
*849 FILLER_19_218
*850 FILLER_19_225
*851 FILLER_19_247
*852 FILLER_19_254
*853 FILLER_19_261
*854 FILLER_19_265
*855 FILLER_19_27
*856 FILLER_19_3
*857 FILLER_19_39
*858 FILLER_19_51
*859 FILLER_19_55
*860 FILLER_19_57
*861 FILLER_19_69
*862 FILLER_19_81
*863 FILLER_19_93
*864 FILLER_1_105
*865 FILLER_1_111
*866 FILLER_1_113
*867 FILLER_1_125
*868 FILLER_1_137
*869 FILLER_1_149
*870 FILLER_1_15
*871 FILLER_1_161
*872 FILLER_1_167
*873 FILLER_1_169
*874 FILLER_1_181
*875 FILLER_1_185
*876 FILLER_1_202
*877 FILLER_1_222
*878 FILLER_1_225
*879 FILLER_1_244
*880 FILLER_1_264
*881 FILLER_1_27
*882 FILLER_1_3
*883 FILLER_1_39
*884 FILLER_1_51
*885 FILLER_1_55
*886 FILLER_1_57
*887 FILLER_1_69
*888 FILLER_1_81
*889 FILLER_1_93
*890 FILLER_20_112
*891 FILLER_20_136
*892 FILLER_20_141
*893 FILLER_20_15
*894 FILLER_20_163
*895 FILLER_20_175
*896 FILLER_20_183
*897 FILLER_20_187
*898 FILLER_20_194
*899 FILLER_20_197
*900 FILLER_20_201
*901 FILLER_20_222
*902 FILLER_20_246
*903 FILLER_20_253
*904 FILLER_20_264
*905 FILLER_20_27
*906 FILLER_20_29
*907 FILLER_20_3
*908 FILLER_20_41
*909 FILLER_20_53
*910 FILLER_20_65
*911 FILLER_20_77
*912 FILLER_20_83
*913 FILLER_20_85
*914 FILLER_20_91
*915 FILLER_21_105
*916 FILLER_21_111
*917 FILLER_21_113
*918 FILLER_21_119
*919 FILLER_21_125
*920 FILLER_21_129
*921 FILLER_21_134
*922 FILLER_21_15
*923 FILLER_21_160
*924 FILLER_21_166
*925 FILLER_21_169
*926 FILLER_21_182
*927 FILLER_21_206
*928 FILLER_21_212
*929 FILLER_21_222
*930 FILLER_21_225
*931 FILLER_21_250
*932 FILLER_21_256
*933 FILLER_21_264
*934 FILLER_21_27
*935 FILLER_21_3
*936 FILLER_21_39
*937 FILLER_21_51
*938 FILLER_21_55
*939 FILLER_21_57
*940 FILLER_21_69
*941 FILLER_21_81
*942 FILLER_21_93
*943 FILLER_22_103
*944 FILLER_22_124
*945 FILLER_22_133
*946 FILLER_22_139
*947 FILLER_22_141
*948 FILLER_22_15
*949 FILLER_22_163
*950 FILLER_22_187
*951 FILLER_22_194
*952 FILLER_22_197
*953 FILLER_22_208
*954 FILLER_22_234
*955 FILLER_22_240
*956 FILLER_22_250
*957 FILLER_22_253
*958 FILLER_22_259
*959 FILLER_22_265
*960 FILLER_22_27
*961 FILLER_22_29
*962 FILLER_22_3
*963 FILLER_22_41
*964 FILLER_22_53
*965 FILLER_22_65
*966 FILLER_22_77
*967 FILLER_22_83
*968 FILLER_22_85
*969 FILLER_22_97
*970 FILLER_23_100
*971 FILLER_23_106
*972 FILLER_23_110
*973 FILLER_23_113
*974 FILLER_23_135
*975 FILLER_23_142
*976 FILLER_23_148
*977 FILLER_23_15
*978 FILLER_23_152
*979 FILLER_23_159
*980 FILLER_23_166
*981 FILLER_23_169
*982 FILLER_23_191
*983 FILLER_23_219
*984 FILLER_23_223
*985 FILLER_23_225
*986 FILLER_23_231
*987 FILLER_23_257
*988 FILLER_23_264
*989 FILLER_23_27
*990 FILLER_23_3
*991 FILLER_23_39
*992 FILLER_23_51
*993 FILLER_23_55
*994 FILLER_23_57
*995 FILLER_23_69
*996 FILLER_23_81
*997 FILLER_23_93
*998 FILLER_23_96
*999 FILLER_24_103
*1000 FILLER_24_124
*1001 FILLER_24_135
*1002 FILLER_24_139
*1003 FILLER_24_141
*1004 FILLER_24_15
*1005 FILLER_24_163
*1006 FILLER_24_171
*1007 FILLER_24_193
*1008 FILLER_24_197
*1009 FILLER_24_209
*1010 FILLER_24_222
*1011 FILLER_24_230
*1012 FILLER_24_238
*1013 FILLER_24_245
*1014 FILLER_24_251
*1015 FILLER_24_253
*1016 FILLER_24_258
*1017 FILLER_24_27
*1018 FILLER_24_29
*1019 FILLER_24_3
*1020 FILLER_24_41
*1021 FILLER_24_53
*1022 FILLER_24_65
*1023 FILLER_24_77
*1024 FILLER_24_83
*1025 FILLER_24_85
*1026 FILLER_24_94
*1027 FILLER_25_113
*1028 FILLER_25_135
*1029 FILLER_25_148
*1030 FILLER_25_15
*1031 FILLER_25_156
*1032 FILLER_25_166
*1033 FILLER_25_169
*1034 FILLER_25_195
*1035 FILLER_25_208
*1036 FILLER_25_212
*1037 FILLER_25_222
*1038 FILLER_25_225
*1039 FILLER_25_236
*1040 FILLER_25_251
*1041 FILLER_25_259
*1042 FILLER_25_265
*1043 FILLER_25_27
*1044 FILLER_25_3
*1045 FILLER_25_39
*1046 FILLER_25_43
*1047 FILLER_25_54
*1048 FILLER_25_57
*1049 FILLER_25_69
*1050 FILLER_25_77
*1051 FILLER_25_81
*1052 FILLER_25_90
*1053 FILLER_25_97
*1054 FILLER_26_100
*1055 FILLER_26_109
*1056 FILLER_26_114
*1057 FILLER_26_138
*1058 FILLER_26_141
*1059 FILLER_26_15
*1060 FILLER_26_163
*1061 FILLER_26_170
*1062 FILLER_26_194
*1063 FILLER_26_197
*1064 FILLER_26_219
*1065 FILLER_26_226
*1066 FILLER_26_250
*1067 FILLER_26_253
*1068 FILLER_26_259
*1069 FILLER_26_265
*1070 FILLER_26_27
*1071 FILLER_26_29
*1072 FILLER_26_3
*1073 FILLER_26_37
*1074 FILLER_26_42
*1075 FILLER_26_50
*1076 FILLER_26_57
*1077 FILLER_26_63
*1078 FILLER_26_69
*1079 FILLER_26_75
*1080 FILLER_26_82
*1081 FILLER_26_85
*1082 FILLER_26_89
*1083 FILLER_26_93
*1084 FILLER_27_109
*1085 FILLER_27_113
*1086 FILLER_27_124
*1087 FILLER_27_132
*1088 FILLER_27_142
*1089 FILLER_27_15
*1090 FILLER_27_150
*1091 FILLER_27_156
*1092 FILLER_27_166
*1093 FILLER_27_169
*1094 FILLER_27_180
*1095 FILLER_27_208
*1096 FILLER_27_215
*1097 FILLER_27_222
*1098 FILLER_27_23
*1099 FILLER_27_248
*1100 FILLER_27_254
*1101 FILLER_27_26
*1102 FILLER_27_262
*1103 FILLER_27_3
*1104 FILLER_27_33
*1105 FILLER_27_42
*1106 FILLER_27_55
*1107 FILLER_27_57
*1108 FILLER_27_62
*1109 FILLER_27_69
*1110 FILLER_27_75
*1111 FILLER_27_81
*1112 FILLER_27_85
*1113 FILLER_28_114
*1114 FILLER_28_13
*1115 FILLER_28_138
*1116 FILLER_28_141
*1117 FILLER_28_169
*1118 FILLER_28_182
*1119 FILLER_28_189
*1120 FILLER_28_19
*1121 FILLER_28_195
*1122 FILLER_28_197
*1123 FILLER_28_208
*1124 FILLER_28_231
*1125 FILLER_28_237
*1126 FILLER_28_250
*1127 FILLER_28_253
*1128 FILLER_28_26
*1129 FILLER_28_260
*1130 FILLER_28_29
*1131 FILLER_28_3
*1132 FILLER_28_40
*1133 FILLER_28_46
*1134 FILLER_28_58
*1135 FILLER_28_64
*1136 FILLER_28_68
*1137 FILLER_28_75
*1138 FILLER_28_82
*1139 FILLER_28_85
*1140 FILLER_28_90
*1141 FILLER_29_110
*1142 FILLER_29_113
*1143 FILLER_29_125
*1144 FILLER_29_149
*1145 FILLER_29_162
*1146 FILLER_29_169
*1147 FILLER_29_180
*1148 FILLER_29_206
*1149 FILLER_29_21
*1150 FILLER_29_219
*1151 FILLER_29_223
*1152 FILLER_29_225
*1153 FILLER_29_247
*1154 FILLER_29_251
*1155 FILLER_29_264
*1156 FILLER_29_27
*1157 FILLER_29_3
*1158 FILLER_29_34
*1159 FILLER_29_43
*1160 FILLER_29_47
*1161 FILLER_29_54
*1162 FILLER_29_57
*1163 FILLER_29_68
*1164 FILLER_29_7
*1165 FILLER_29_72
*1166 FILLER_29_78
*1167 FILLER_29_82
*1168 FILLER_29_88
*1169 FILLER_2_109
*1170 FILLER_2_121
*1171 FILLER_2_133
*1172 FILLER_2_139
*1173 FILLER_2_141
*1174 FILLER_2_15
*1175 FILLER_2_153
*1176 FILLER_2_165
*1177 FILLER_2_177
*1178 FILLER_2_189
*1179 FILLER_2_195
*1180 FILLER_2_197
*1181 FILLER_2_209
*1182 FILLER_2_213
*1183 FILLER_2_230
*1184 FILLER_2_250
*1185 FILLER_2_253
*1186 FILLER_2_259
*1187 FILLER_2_265
*1188 FILLER_2_27
*1189 FILLER_2_29
*1190 FILLER_2_3
*1191 FILLER_2_41
*1192 FILLER_2_53
*1193 FILLER_2_65
*1194 FILLER_2_77
*1195 FILLER_2_83
*1196 FILLER_2_85
*1197 FILLER_2_97
*1198 FILLER_30_107
*1199 FILLER_30_12
*1200 FILLER_30_135
*1201 FILLER_30_139
*1202 FILLER_30_141
*1203 FILLER_30_152
*1204 FILLER_30_176
*1205 FILLER_30_189
*1206 FILLER_30_195
*1207 FILLER_30_197
*1208 FILLER_30_20
*1209 FILLER_30_202
*1210 FILLER_30_208
*1211 FILLER_30_229
*1212 FILLER_30_251
*1213 FILLER_30_253
*1214 FILLER_30_264
*1215 FILLER_30_27
*1216 FILLER_30_29
*1217 FILLER_30_3
*1218 FILLER_30_35
*1219 FILLER_30_40
*1220 FILLER_30_44
*1221 FILLER_30_50
*1222 FILLER_30_54
*1223 FILLER_30_61
*1224 FILLER_30_68
*1225 FILLER_30_74
*1226 FILLER_30_83
*1227 FILLER_30_85
*1228 FILLER_31_107
*1229 FILLER_31_111
*1230 FILLER_31_113
*1231 FILLER_31_117
*1232 FILLER_31_122
*1233 FILLER_31_146
*1234 FILLER_31_159
*1235 FILLER_31_166
*1236 FILLER_31_169
*1237 FILLER_31_192
*1238 FILLER_31_205
*1239 FILLER_31_218
*1240 FILLER_31_225
*1241 FILLER_31_23
*1242 FILLER_31_236
*1243 FILLER_31_262
*1244 FILLER_31_3
*1245 FILLER_31_36
*1246 FILLER_31_40
*1247 FILLER_31_44
*1248 FILLER_31_50
*1249 FILLER_31_54
*1250 FILLER_31_57
*1251 FILLER_31_62
*1252 FILLER_31_69
*1253 FILLER_31_78
*1254 FILLER_31_83
*1255 FILLER_32_110
*1256 FILLER_32_134
*1257 FILLER_32_141
*1258 FILLER_32_146
*1259 FILLER_32_159
*1260 FILLER_32_174
*1261 FILLER_32_189
*1262 FILLER_32_195
*1263 FILLER_32_197
*1264 FILLER_32_208
*1265 FILLER_32_216
*1266 FILLER_32_237
*1267 FILLER_32_245
*1268 FILLER_32_248
*1269 FILLER_32_253
*1270 FILLER_32_26
*1271 FILLER_32_264
*1272 FILLER_32_29
*1273 FILLER_32_3
*1274 FILLER_32_47
*1275 FILLER_32_54
*1276 FILLER_32_61
*1277 FILLER_32_68
*1278 FILLER_32_75
*1279 FILLER_32_82
*1280 FILLER_32_85
*1281 FILLER_32_9
*1282 FILLER_32_97
*1283 FILLER_33_106
*1284 FILLER_33_113
*1285 FILLER_33_128
*1286 FILLER_33_134
*1287 FILLER_33_15
*1288 FILLER_33_155
*1289 FILLER_33_163
*1290 FILLER_33_167
*1291 FILLER_33_169
*1292 FILLER_33_192
*1293 FILLER_33_196
*1294 FILLER_33_217
*1295 FILLER_33_223
*1296 FILLER_33_225
*1297 FILLER_33_236