*SPEF "ieee 1481-1999"
*DESIGN "bottom_left_tile"
*DATE "11:11:11 Fri 11 11, 1111"
*VENDOR "OpenRCX"
*PROGRAM "Parallel Extraction"
*VERSION "1.0"
*DESIGN_FLOW "NAME_SCOPE LOCAL" "PIN_CAP NONE"
*DIVIDER /
*DELIMITER :
*BUS_DELIMITER []
*T_UNIT 1 NS
*C_UNIT 1 PF
*R_UNIT 1 OHM
*L_UNIT 1 HENRY

*NAME_MAP
*3 ccff_head
*4 ccff_tail
*5 chanx_right_in[0]
*6 chanx_right_in[10]
*7 chanx_right_in[11]
*8 chanx_right_in[12]
*9 chanx_right_in[13]
*10 chanx_right_in[14]
*11 chanx_right_in[15]
*12 chanx_right_in[16]
*13 chanx_right_in[17]
*14 chanx_right_in[18]
*15 chanx_right_in[19]
*16 chanx_right_in[1]
*17 chanx_right_in[20]
*18 chanx_right_in[21]
*19 chanx_right_in[22]
*20 chanx_right_in[23]
*21 chanx_right_in[24]
*22 chanx_right_in[25]
*23 chanx_right_in[26]
*24 chanx_right_in[27]
*25 chanx_right_in[28]
*26 chanx_right_in[29]
*27 chanx_right_in[2]
*28 chanx_right_in[3]
*29 chanx_right_in[4]
*30 chanx_right_in[5]
*31 chanx_right_in[6]
*32 chanx_right_in[7]
*33 chanx_right_in[8]
*34 chanx_right_in[9]
*35 chanx_right_out[0]
*36 chanx_right_out[10]
*37 chanx_right_out[11]
*38 chanx_right_out[12]
*39 chanx_right_out[13]
*40 chanx_right_out[14]
*41 chanx_right_out[15]
*42 chanx_right_out[16]
*43 chanx_right_out[17]
*44 chanx_right_out[18]
*45 chanx_right_out[19]
*46 chanx_right_out[1]
*47 chanx_right_out[20]
*48 chanx_right_out[21]
*49 chanx_right_out[22]
*50 chanx_right_out[23]
*51 chanx_right_out[24]
*52 chanx_right_out[25]
*53 chanx_right_out[26]
*54 chanx_right_out[27]
*55 chanx_right_out[28]
*56 chanx_right_out[29]
*57 chanx_right_out[2]
*58 chanx_right_out[3]
*59 chanx_right_out[4]
*60 chanx_right_out[5]
*61 chanx_right_out[6]
*62 chanx_right_out[7]
*63 chanx_right_out[8]
*64 chanx_right_out[9]
*65 chany_top_in[0]
*66 chany_top_in[10]
*67 chany_top_in[11]
*68 chany_top_in[12]
*69 chany_top_in[13]
*70 chany_top_in[14]
*71 chany_top_in[15]
*72 chany_top_in[16]
*73 chany_top_in[17]
*74 chany_top_in[18]
*75 chany_top_in[19]
*76 chany_top_in[1]
*77 chany_top_in[20]
*78 chany_top_in[21]
*79 chany_top_in[22]
*80 chany_top_in[23]
*81 chany_top_in[24]
*82 chany_top_in[25]
*83 chany_top_in[26]
*84 chany_top_in[27]
*85 chany_top_in[28]
*86 chany_top_in[29]
*87 chany_top_in[2]
*88 chany_top_in[3]
*89 chany_top_in[4]
*90 chany_top_in[5]
*91 chany_top_in[6]
*92 chany_top_in[7]
*93 chany_top_in[8]
*94 chany_top_in[9]
*95 chany_top_out[0]
*96 chany_top_out[10]
*97 chany_top_out[11]
*98 chany_top_out[12]
*99 chany_top_out[13]
*100 chany_top_out[14]
*101 chany_top_out[15]
*102 chany_top_out[16]
*103 chany_top_out[17]
*104 chany_top_out[18]
*105 chany_top_out[19]
*106 chany_top_out[1]
*107 chany_top_out[20]
*108 chany_top_out[21]
*109 chany_top_out[22]
*110 chany_top_out[23]
*111 chany_top_out[24]
*112 chany_top_out[25]
*113 chany_top_out[26]
*114 chany_top_out[27]
*115 chany_top_out[28]
*116 chany_top_out[29]
*117 chany_top_out[2]
*118 chany_top_out[3]
*119 chany_top_out[4]
*120 chany_top_out[5]
*121 chany_top_out[6]
*122 chany_top_out[7]
*123 chany_top_out[8]
*124 chany_top_out[9]
*125 prog_clk
*126 prog_reset
*127 reset
*128 right_bottom_grid_top_width_0_height_0_subtile_0__pin_inpad_0_
*129 right_bottom_grid_top_width_0_height_0_subtile_1__pin_inpad_0_
*130 right_bottom_grid_top_width_0_height_0_subtile_2__pin_inpad_0_
*131 right_bottom_grid_top_width_0_height_0_subtile_3__pin_inpad_0_
*132 test_enable
*133 top_left_grid_right_width_0_height_0_subtile_0__pin_inpad_0_
*134 top_left_grid_right_width_0_height_0_subtile_1__pin_inpad_0_
*135 top_left_grid_right_width_0_height_0_subtile_2__pin_inpad_0_
*136 top_left_grid_right_width_0_height_0_subtile_3__pin_inpad_0_
*137 clknet_0_prog_clk
*138 clknet_3_0__leaf_prog_clk
*139 clknet_3_1__leaf_prog_clk
*140 clknet_3_2__leaf_prog_clk
*141 clknet_3_3__leaf_prog_clk
*142 clknet_3_4__leaf_prog_clk
*143 clknet_3_5__leaf_prog_clk
*144 clknet_3_6__leaf_prog_clk
*145 clknet_3_7__leaf_prog_clk
*146 net1
*147 net10
*148 net100
*149 net101
*150 net102
*151 net103
*152 net104
*153 net105
*154 net106
*155 net107
*156 net108
*157 net109
*158 net11
*159 net110
*160 net111
*161 net112
*162 net113
*163 net114
*164 net115
*165 net116
*166 net117
*167 net118
*168 net119
*169 net12
*170 net120
*171 net121
*172 net122
*173 net123
*174 net124
*175 net125
*176 net126
*177 net127
*178 net128
*179 net129
*180 net13
*181 net130
*182 net131
*183 net132
*184 net133
*185 net134
*186 net135
*187 net136
*188 net137
*189 net138
*190 net139
*191 net14
*192 net140
*193 net141
*194 net142
*195 net143
*196 net144
*197 net145
*198 net146
*199 net147
*200 net148
*201 net149
*202 net15
*203 net150
*204 net151
*205 net152
*206 net153
*207 net154
*208 net155
*209 net156
*210 net157
*211 net158
*212 net159
*213 net16
*214 net160
*215 net161
*216 net162
*217 net163
*218 net164
*219 net165
*220 net166
*221 net167
*222 net168
*223 net169
*224 net17
*225 net170
*226 net171
*227 net172
*228 net173
*229 net174
*230 net175
*231 net176
*232 net177
*233 net178
*234 net179
*235 net18
*236 net180
*237 net181
*238 net182
*239 net183
*240 net184
*241 net185
*242 net186
*243 net187
*244 net188
*245 net189
*246 net19
*247 net190
*248 net191
*249 net192
*250 net193
*251 net194
*252 net195
*253 net196
*254 net197
*255 net198
*256 net199
*257 net2
*258 net20
*259 net200
*260 net201
*261 net202
*262 net203
*263 net204
*264 net205
*265 net206
*266 net21
*267 net22
*268 net23
*269 net24
*270 net25
*271 net26
*272 net27
*273 net28
*274 net29
*275 net3
*276 net30
*277 net31
*278 net32
*279 net33
*280 net34
*281 net35
*282 net36
*283 net37
*284 net38
*285 net39
*286 net4
*287 net40
*288 net41
*289 net42
*290 net43
*291 net44
*292 net45
*293 net46
*294 net47
*295 net48
*296 net49
*297 net5
*298 net50
*299 net51
*300 net52
*301 net53
*302 net54
*303 net55
*304 net56
*305 net57
*306 net58
*307 net59
*308 net6
*309 net60
*310 net61
*311 net62
*312 net63
*313 net64
*314 net65
*315 net66
*316 net67
*317 net68
*318 net69
*319 net7
*320 net70
*321 net71
*322 net72
*323 net73
*324 net74
*325 net75
*326 net76
*327 net77
*328 net78
*329 net79
*330 net8
*331 net80
*332 net81
*333 net82
*334 net83
*335 net84
*336 net85
*337 net86
*338 net87
*339 net88
*340 net89
*341 net9
*342 net90
*343 net91
*344 net92
*345 net93
*346 net94
*347 net95
*348 net96
*349 net97
*350 net98
*351 net99
*352 sb_0__0_\.mem_right_track_0\.ccff_head
*353 sb_0__0_\.mem_right_track_0\.ccff_tail
*354 sb_0__0_\.mem_right_track_0\.mem_out\[0\]
*355 sb_0__0_\.mem_right_track_10\.ccff_head
*356 sb_0__0_\.mem_right_track_10\.ccff_tail
*357 sb_0__0_\.mem_right_track_10\.mem_out\[0\]
*358 sb_0__0_\.mem_right_track_12\.ccff_tail
*359 sb_0__0_\.mem_right_track_12\.mem_out\[0\]
*360 sb_0__0_\.mem_right_track_14\.ccff_tail
*361 sb_0__0_\.mem_right_track_14\.mem_out\[0\]
*362 sb_0__0_\.mem_right_track_16\.ccff_tail
*363 sb_0__0_\.mem_right_track_16\.mem_out\[0\]
*364 sb_0__0_\.mem_right_track_18\.ccff_tail
*365 sb_0__0_\.mem_right_track_18\.mem_out\[0\]
*366 sb_0__0_\.mem_right_track_2\.ccff_tail
*367 sb_0__0_\.mem_right_track_2\.mem_out\[0\]
*368 sb_0__0_\.mem_right_track_28\.ccff_tail
*369 sb_0__0_\.mem_right_track_28\.mem_out\[0\]
*370 sb_0__0_\.mem_right_track_30\.ccff_tail
*371 sb_0__0_\.mem_right_track_30\.mem_out\[0\]
*372 sb_0__0_\.mem_right_track_32\.ccff_tail
*373 sb_0__0_\.mem_right_track_32\.mem_out\[0\]
*374 sb_0__0_\.mem_right_track_34\.ccff_tail
*375 sb_0__0_\.mem_right_track_34\.mem_out\[0\]
*376 sb_0__0_\.mem_right_track_4\.ccff_tail
*377 sb_0__0_\.mem_right_track_4\.mem_out\[0\]
*378 sb_0__0_\.mem_right_track_44\.ccff_tail
*379 sb_0__0_\.mem_right_track_44\.mem_out\[0\]
*380 sb_0__0_\.mem_right_track_46\.ccff_tail
*381 sb_0__0_\.mem_right_track_46\.mem_out\[0\]
*382 sb_0__0_\.mem_right_track_48\.ccff_tail
*383 sb_0__0_\.mem_right_track_48\.mem_out\[0\]
*384 sb_0__0_\.mem_right_track_50\.mem_out\[0\]
*385 sb_0__0_\.mem_right_track_6\.ccff_tail
*386 sb_0__0_\.mem_right_track_6\.mem_out\[0\]
*387 sb_0__0_\.mem_right_track_8\.mem_out\[0\]
*388 sb_0__0_\.mem_top_track_0\.ccff_tail
*389 sb_0__0_\.mem_top_track_0\.mem_out\[0\]
*390 sb_0__0_\.mem_top_track_10\.ccff_head
*391 sb_0__0_\.mem_top_track_10\.ccff_tail
*392 sb_0__0_\.mem_top_track_10\.mem_out\[0\]
*393 sb_0__0_\.mem_top_track_12\.ccff_tail
*394 sb_0__0_\.mem_top_track_12\.mem_out\[0\]
*395 sb_0__0_\.mem_top_track_14\.ccff_tail
*396 sb_0__0_\.mem_top_track_14\.mem_out\[0\]
*397 sb_0__0_\.mem_top_track_16\.ccff_tail
*398 sb_0__0_\.mem_top_track_16\.mem_out\[0\]
*399 sb_0__0_\.mem_top_track_18\.ccff_tail
*400 sb_0__0_\.mem_top_track_18\.mem_out\[0\]
*401 sb_0__0_\.mem_top_track_2\.ccff_tail
*402 sb_0__0_\.mem_top_track_2\.mem_out\[0\]
*403 sb_0__0_\.mem_top_track_28\.ccff_tail
*404 sb_0__0_\.mem_top_track_28\.mem_out\[0\]
*405 sb_0__0_\.mem_top_track_30\.ccff_tail
*406 sb_0__0_\.mem_top_track_30\.mem_out\[0\]
*407 sb_0__0_\.mem_top_track_32\.ccff_tail
*408 sb_0__0_\.mem_top_track_32\.mem_out\[0\]
*409 sb_0__0_\.mem_top_track_34\.ccff_tail
*410 sb_0__0_\.mem_top_track_34\.mem_out\[0\]
*411 sb_0__0_\.mem_top_track_4\.ccff_tail
*412 sb_0__0_\.mem_top_track_4\.mem_out\[0\]
*413 sb_0__0_\.mem_top_track_44\.ccff_tail
*414 sb_0__0_\.mem_top_track_44\.mem_out\[0\]
*415 sb_0__0_\.mem_top_track_46\.ccff_tail
*416 sb_0__0_\.mem_top_track_46\.mem_out\[0\]
*417 sb_0__0_\.mem_top_track_48\.ccff_tail
*418 sb_0__0_\.mem_top_track_48\.mem_out\[0\]
*419 sb_0__0_\.mem_top_track_50\.mem_out\[0\]
*420 sb_0__0_\.mem_top_track_6\.ccff_tail
*421 sb_0__0_\.mem_top_track_6\.mem_out\[0\]
*422 sb_0__0_\.mem_top_track_8\.mem_out\[0\]
*423 sb_0__0_\.mux_right_track_0\.out
*424 sb_0__0_\.mux_right_track_0\.sky130_fd_sc_hd__mux2_1_0_X
*425 sb_0__0_\.mux_right_track_0\.sky130_fd_sc_hd__mux2_1_1_X
*426 sb_0__0_\.mux_right_track_0\.sky130_fd_sc_hd__mux2_1_2_X
*427 sb_0__0_\.mux_right_track_10\.out
*428 sb_0__0_\.mux_right_track_10\.sky130_fd_sc_hd__mux2_1_0_X
*429 sb_0__0_\.mux_right_track_10\.sky130_fd_sc_hd__mux2_1_1_X
*430 sb_0__0_\.mux_right_track_12\.out
*431 sb_0__0_\.mux_right_track_12\.sky130_fd_sc_hd__mux2_1_0_X
*432 sb_0__0_\.mux_right_track_12\.sky130_fd_sc_hd__mux2_1_1_X
*433 sb_0__0_\.mux_right_track_14\.out
*434 sb_0__0_\.mux_right_track_14\.sky130_fd_sc_hd__mux2_1_0_X
*435 sb_0__0_\.mux_right_track_14\.sky130_fd_sc_hd__mux2_1_1_X
*436 sb_0__0_\.mux_right_track_16\.out
*437 sb_0__0_\.mux_right_track_16\.sky130_fd_sc_hd__mux2_1_0_X
*438 sb_0__0_\.mux_right_track_16\.sky130_fd_sc_hd__mux2_1_1_X
*439 sb_0__0_\.mux_right_track_18\.out
*440 sb_0__0_\.mux_right_track_18\.sky130_fd_sc_hd__mux2_1_0_X
*441 sb_0__0_\.mux_right_track_18\.sky130_fd_sc_hd__mux2_1_1_X
*442 sb_0__0_\.mux_right_track_2\.out
*443 sb_0__0_\.mux_right_track_2\.sky130_fd_sc_hd__mux2_1_0_X
*444 sb_0__0_\.mux_right_track_2\.sky130_fd_sc_hd__mux2_1_1_X
*445 sb_0__0_\.mux_right_track_28\.out
*446 sb_0__0_\.mux_right_track_28\.sky130_fd_sc_hd__mux2_1_0_X
*447 sb_0__0_\.mux_right_track_28\.sky130_fd_sc_hd__mux2_1_1_X
*448 sb_0__0_\.mux_right_track_30\.out
*449 sb_0__0_\.mux_right_track_30\.sky130_fd_sc_hd__mux2_1_0_X
*450 sb_0__0_\.mux_right_track_30\.sky130_fd_sc_hd__mux2_1_1_X
*451 sb_0__0_\.mux_right_track_32\.out
*452 sb_0__0_\.mux_right_track_32\.sky130_fd_sc_hd__mux2_1_0_X
*453 sb_0__0_\.mux_right_track_32\.sky130_fd_sc_hd__mux2_1_1_X
*454 sb_0__0_\.mux_right_track_34\.out
*455 sb_0__0_\.mux_right_track_34\.sky130_fd_sc_hd__mux2_1_0_X
*456 sb_0__0_\.mux_right_track_34\.sky130_fd_sc_hd__mux2_1_1_X
*457 sb_0__0_\.mux_right_track_4\.out
*458 sb_0__0_\.mux_right_track_4\.sky130_fd_sc_hd__mux2_1_0_X
*459 sb_0__0_\.mux_right_track_4\.sky130_fd_sc_hd__mux2_1_1_X
*460 sb_0__0_\.mux_right_track_44\.out
*461 sb_0__0_\.mux_right_track_44\.sky130_fd_sc_hd__mux2_1_0_X
*462 sb_0__0_\.mux_right_track_44\.sky130_fd_sc_hd__mux2_1_1_X
*463 sb_0__0_\.mux_right_track_46\.out
*464 sb_0__0_\.mux_right_track_46\.sky130_fd_sc_hd__mux2_1_0_X
*465 sb_0__0_\.mux_right_track_46\.sky130_fd_sc_hd__mux2_1_1_X
*466 sb_0__0_\.mux_right_track_48\.out
*467 sb_0__0_\.mux_right_track_48\.sky130_fd_sc_hd__mux2_1_0_X
*468 sb_0__0_\.mux_right_track_48\.sky130_fd_sc_hd__mux2_1_1_X
*469 sb_0__0_\.mux_right_track_50\.out
*470 sb_0__0_\.mux_right_track_50\.sky130_fd_sc_hd__mux2_1_0_X
*471 sb_0__0_\.mux_right_track_50\.sky130_fd_sc_hd__mux2_1_1_X
*472 sb_0__0_\.mux_right_track_6\.out
*473 sb_0__0_\.mux_right_track_6\.sky130_fd_sc_hd__mux2_1_0_X
*474 sb_0__0_\.mux_right_track_6\.sky130_fd_sc_hd__mux2_1_1_X
*475 sb_0__0_\.mux_right_track_6\.sky130_fd_sc_hd__mux2_1_2_X
*476 sb_0__0_\.mux_right_track_8\.out
*477 sb_0__0_\.mux_right_track_8\.sky130_fd_sc_hd__mux2_1_0_X
*478 sb_0__0_\.mux_right_track_8\.sky130_fd_sc_hd__mux2_1_1_X
*479 sb_0__0_\.mux_top_track_0\.out
*480 sb_0__0_\.mux_top_track_0\.sky130_fd_sc_hd__mux2_1_0_X
*481 sb_0__0_\.mux_top_track_0\.sky130_fd_sc_hd__mux2_1_1_X
*482 sb_0__0_\.mux_top_track_0\.sky130_fd_sc_hd__mux2_1_2_X
*483 sb_0__0_\.mux_top_track_10\.out
*484 sb_0__0_\.mux_top_track_10\.sky130_fd_sc_hd__mux2_1_0_X
*485 sb_0__0_\.mux_top_track_10\.sky130_fd_sc_hd__mux2_1_1_X
*486 sb_0__0_\.mux_top_track_12\.out
*487 sb_0__0_\.mux_top_track_12\.sky130_fd_sc_hd__mux2_1_0_X
*488 sb_0__0_\.mux_top_track_12\.sky130_fd_sc_hd__mux2_1_1_X
*489 sb_0__0_\.mux_top_track_14\.out
*490 sb_0__0_\.mux_top_track_14\.sky130_fd_sc_hd__mux2_1_0_X
*491 sb_0__0_\.mux_top_track_14\.sky130_fd_sc_hd__mux2_1_1_X
*492 sb_0__0_\.mux_top_track_16\.out
*493 sb_0__0_\.mux_top_track_16\.sky130_fd_sc_hd__mux2_1_0_X
*494 sb_0__0_\.mux_top_track_16\.sky130_fd_sc_hd__mux2_1_1_X
*495 sb_0__0_\.mux_top_track_18\.out
*496 sb_0__0_\.mux_top_track_18\.sky130_fd_sc_hd__mux2_1_0_X
*497 sb_0__0_\.mux_top_track_18\.sky130_fd_sc_hd__mux2_1_1_X
*498 sb_0__0_\.mux_top_track_2\.out
*499 sb_0__0_\.mux_top_track_2\.sky130_fd_sc_hd__mux2_1_0_X
*500 sb_0__0_\.mux_top_track_2\.sky130_fd_sc_hd__mux2_1_1_X
*501 sb_0__0_\.mux_top_track_28\.out
*502 sb_0__0_\.mux_top_track_28\.sky130_fd_sc_hd__mux2_1_0_X
*503 sb_0__0_\.mux_top_track_28\.sky130_fd_sc_hd__mux2_1_1_X
*504 sb_0__0_\.mux_top_track_30\.out
*505 sb_0__0_\.mux_top_track_30\.sky130_fd_sc_hd__mux2_1_0_X
*506 sb_0__0_\.mux_top_track_30\.sky130_fd_sc_hd__mux2_1_1_X
*507 sb_0__0_\.mux_top_track_32\.out
*508 sb_0__0_\.mux_top_track_32\.sky130_fd_sc_hd__mux2_1_0_X
*509 sb_0__0_\.mux_top_track_32\.sky130_fd_sc_hd__mux2_1_1_X
*510 sb_0__0_\.mux_top_track_34\.out
*511 sb_0__0_\.mux_top_track_34\.sky130_fd_sc_hd__mux2_1_0_X
*512 sb_0__0_\.mux_top_track_34\.sky130_fd_sc_hd__mux2_1_1_X
*513 sb_0__0_\.mux_top_track_4\.out
*514 sb_0__0_\.mux_top_track_4\.sky130_fd_sc_hd__mux2_1_0_X
*515 sb_0__0_\.mux_top_track_4\.sky130_fd_sc_hd__mux2_1_1_X
*516 sb_0__0_\.mux_top_track_44\.out
*517 sb_0__0_\.mux_top_track_44\.sky130_fd_sc_hd__mux2_1_0_X
*518 sb_0__0_\.mux_top_track_44\.sky130_fd_sc_hd__mux2_1_1_X
*519 sb_0__0_\.mux_top_track_46\.out
*520 sb_0__0_\.mux_top_track_46\.sky130_fd_sc_hd__mux2_1_0_X
*521 sb_0__0_\.mux_top_track_46\.sky130_fd_sc_hd__mux2_1_1_X
*522 sb_0__0_\.mux_top_track_48\.out
*523 sb_0__0_\.mux_top_track_48\.sky130_fd_sc_hd__mux2_1_0_X
*524 sb_0__0_\.mux_top_track_48\.sky130_fd_sc_hd__mux2_1_1_X
*525 sb_0__0_\.mux_top_track_50\.out
*526 sb_0__0_\.mux_top_track_50\.sky130_fd_sc_hd__mux2_1_0_X
*527 sb_0__0_\.mux_top_track_50\.sky130_fd_sc_hd__mux2_1_1_X
*528 sb_0__0_\.mux_top_track_6\.out
*529 sb_0__0_\.mux_top_track_6\.sky130_fd_sc_hd__mux2_1_0_X
*530 sb_0__0_\.mux_top_track_6\.sky130_fd_sc_hd__mux2_1_1_X
*531 sb_0__0_\.mux_top_track_6\.sky130_fd_sc_hd__mux2_1_2_X
*532 sb_0__0_\.mux_top_track_8\.out
*533 sb_0__0_\.mux_top_track_8\.sky130_fd_sc_hd__mux2_1_0_X
*534 sb_0__0_\.mux_top_track_8\.sky130_fd_sc_hd__mux2_1_1_X
*535 ANTENNA_1
*536 ANTENNA_10
*537 ANTENNA_11
*538 ANTENNA_12
*539 ANTENNA_13
*540 ANTENNA_14
*541 ANTENNA_15
*542 ANTENNA_16
*543 ANTENNA_17
*544 ANTENNA_2
*545 ANTENNA_3
*546 ANTENNA_4
*547 ANTENNA_5
*548 ANTENNA_6
*549 ANTENNA_7
*550 ANTENNA_8
*551 ANTENNA_9
*552 ANTENNA__072__A
*553 ANTENNA__073__A
*554 ANTENNA__074__A
*555 ANTENNA__075__A
*556 ANTENNA__080__A
*557 ANTENNA__081__A
*558 ANTENNA__088__A
*559 ANTENNA__089__A
*560 ANTENNA__091__A
*561 ANTENNA__102__A
*562 ANTENNA__103__A
*563 ANTENNA__105__A
*564 ANTENNA__112__A
*565 ANTENNA__113__A
*566 ANTENNA__121__A
*567 ANTENNA__131__A
*568 ANTENNA_clkbuf_0_prog_clk_A
*569 ANTENNA_clkbuf_3_0__f_prog_clk_A
*570 ANTENNA_clkbuf_3_1__f_prog_clk_A
*571 ANTENNA_clkbuf_3_2__f_prog_clk_A
*572 ANTENNA_clkbuf_3_3__f_prog_clk_A
*573 ANTENNA_clkbuf_3_4__f_prog_clk_A
*574 ANTENNA_clkbuf_3_5__f_prog_clk_A
*575 ANTENNA_clkbuf_3_6__f_prog_clk_A
*576 ANTENNA_clkbuf_3_7__f_prog_clk_A
*577 ANTENNA_hold10_A
*578 ANTENNA_hold11_A
*579 ANTENNA_hold12_A
*580 ANTENNA_hold13_A
*581 ANTENNA_hold14_A
*582 ANTENNA_hold15_A
*583 ANTENNA_hold16_A
*584 ANTENNA_hold17_A
*585 ANTENNA_hold18_A
*586 ANTENNA_hold19_A
*587 ANTENNA_hold1_A
*588 ANTENNA_hold20_A
*589 ANTENNA_hold21_A
*590 ANTENNA_hold22_A
*591 ANTENNA_hold23_A
*592 ANTENNA_hold24_A
*593 ANTENNA_hold25_A
*594 ANTENNA_hold26_A
*595 ANTENNA_hold27_A
*596 ANTENNA_hold28_A
*597 ANTENNA_hold29_A
*598 ANTENNA_hold30_A
*599 ANTENNA_hold31_A
*600 ANTENNA_hold32_A
*601 ANTENNA_hold33_A
*602 ANTENNA_hold34_A
*603 ANTENNA_hold35_A
*604 ANTENNA_hold36_A
*605 ANTENNA_hold37_A
*606 ANTENNA_hold3_A
*607 ANTENNA_hold5_A
*608 ANTENNA_hold7_A
*609 ANTENNA_input12_A
*610 ANTENNA_input14_A
*611 ANTENNA_input15_A
*612 ANTENNA_input16_A
*613 ANTENNA_input17_A
*614 ANTENNA_input18_A
*615 ANTENNA_input19_A
*616 ANTENNA_input20_A
*617 ANTENNA_input21_A
*618 ANTENNA_input22_A
*619 ANTENNA_input25_A
*620 ANTENNA_input27_A
*621 ANTENNA_input28_A
*622 ANTENNA_input32_A
*623 ANTENNA_input35_A
*624 ANTENNA_input36_A
*625 ANTENNA_input38_A
*626 ANTENNA_input39_A
*627 ANTENNA_input45_A
*628 ANTENNA_input46_A
*629 ANTENNA_input47_A
*630 ANTENNA_input48_A
*631 ANTENNA_input49_A
*632 ANTENNA_input4_A
*633 ANTENNA_input50_A
*634 ANTENNA_input51_A
*635 ANTENNA_input52_A
*636 ANTENNA_input53_A
*637 ANTENNA_input57_A
*638 ANTENNA_input58_A
*639 ANTENNA_input5_A
*640 ANTENNA_input60_A
*641 ANTENNA_input61_A
*642 ANTENNA_input63_A
*643 ANTENNA_input64_A
*644 ANTENNA_input65_A
*645 ANTENNA_input66_A
*646 ANTENNA_input67_A
*647 ANTENNA_input68_A
*648 ANTENNA_input69_A
*649 ANTENNA_input6_A
*650 ANTENNA_input70_A
*651 ANTENNA_input7_A
*652 ANTENNA_input8_A
*653 ANTENNA_output102_A
*654 ANTENNA_output110_A
*655 ANTENNA_sb_0__0_\.mem_right_track_0\.sky130_fd_sc_hd__dfrtp_1_0__RESET_B
*656 ANTENNA_sb_0__0_\.mem_right_track_0\.sky130_fd_sc_hd__dfrtp_1_1__RESET_B
*657 ANTENNA_sb_0__0_\.mem_right_track_10\.sky130_fd_sc_hd__dfrtp_1_0__RESET_B
*658 ANTENNA_sb_0__0_\.mem_right_track_10\.sky130_fd_sc_hd__dfrtp_1_1__RESET_B
*659 ANTENNA_sb_0__0_\.mem_right_track_12\.sky130_fd_sc_hd__dfrtp_1_0__RESET_B
*660 ANTENNA_sb_0__0_\.mem_right_track_12\.sky130_fd_sc_hd__dfrtp_1_1__RESET_B
*661 ANTENNA_sb_0__0_\.mem_right_track_14\.sky130_fd_sc_hd__dfrtp_1_0__RESET_B
*662 ANTENNA_sb_0__0_\.mem_right_track_14\.sky130_fd_sc_hd__dfrtp_1_1__RESET_B
*663 ANTENNA_sb_0__0_\.mem_right_track_16\.sky130_fd_sc_hd__dfrtp_1_0__RESET_B
*664 ANTENNA_sb_0__0_\.mem_right_track_16\.sky130_fd_sc_hd__dfrtp_1_1__RESET_B
*665 ANTENNA_sb_0__0_\.mem_right_track_18\.sky130_fd_sc_hd__dfrtp_1_0__RESET_B
*666 ANTENNA_sb_0__0_\.mem_right_track_18\.sky130_fd_sc_hd__dfrtp_1_1__RESET_B
*667 ANTENNA_sb_0__0_\.mem_right_track_2\.sky130_fd_sc_hd__dfrtp_1_0__RESET_B
*668 ANTENNA_sb_0__0_\.mem_right_track_2\.sky130_fd_sc_hd__dfrtp_1_1__RESET_B
*669 ANTENNA_sb_0__0_\.mem_right_track_28\.sky130_fd_sc_hd__dfrtp_1_0__RESET_B
*670 ANTENNA_sb_0__0_\.mem_right_track_28\.sky130_fd_sc_hd__dfrtp_1_1__RESET_B
*671 ANTENNA_sb_0__0_\.mem_right_track_30\.sky130_fd_sc_hd__dfrtp_1_0__RESET_B
*672 ANTENNA_sb_0__0_\.mem_right_track_30\.sky130_fd_sc_hd__dfrtp_1_1__RESET_B
*673 ANTENNA_sb_0__0_\.mem_right_track_32\.sky130_fd_sc_hd__dfrtp_1_0__RESET_B
*674 ANTENNA_sb_0__0_\.mem_right_track_32\.sky130_fd_sc_hd__dfrtp_1_1__RESET_B
*675 ANTENNA_sb_0__0_\.mem_right_track_34\.sky130_fd_sc_hd__dfrtp_1_0__RESET_B
*676 ANTENNA_sb_0__0_\.mem_right_track_34\.sky130_fd_sc_hd__dfrtp_1_1__RESET_B
*677 ANTENNA_sb_0__0_\.mem_right_track_4\.sky130_fd_sc_hd__dfrtp_1_0__RESET_B
*678 ANTENNA_sb_0__0_\.mem_right_track_4\.sky130_fd_sc_hd__dfrtp_1_1__RESET_B
*679 ANTENNA_sb_0__0_\.mem_right_track_44\.sky130_fd_sc_hd__dfrtp_1_0__RESET_B
*680 ANTENNA_sb_0__0_\.mem_right_track_44\.sky130_fd_sc_hd__dfrtp_1_1__RESET_B
*681 ANTENNA_sb_0__0_\.mem_right_track_46\.sky130_fd_sc_hd__dfrtp_1_0__RESET_B
*682 ANTENNA_sb_0__0_\.mem_right_track_46\.sky130_fd_sc_hd__dfrtp_1_1__RESET_B
*683 ANTENNA_sb_0__0_\.mem_right_track_48\.sky130_fd_sc_hd__dfrtp_1_0__RESET_B
*684 ANTENNA_sb_0__0_\.mem_right_track_48\.sky130_fd_sc_hd__dfrtp_1_1__RESET_B
*685 ANTENNA_sb_0__0_\.mem_right_track_50\.sky130_fd_sc_hd__dfrtp_1_0__RESET_B
*686 ANTENNA_sb_0__0_\.mem_right_track_50\.sky130_fd_sc_hd__dfrtp_1_1__RESET_B
*687 ANTENNA_sb_0__0_\.mem_right_track_6\.sky130_fd_sc_hd__dfrtp_1_0__RESET_B
*688 ANTENNA_sb_0__0_\.mem_right_track_6\.sky130_fd_sc_hd__dfrtp_1_1__RESET_B
*689 ANTENNA_sb_0__0_\.mem_right_track_8\.sky130_fd_sc_hd__dfrtp_1_0__RESET_B
*690 ANTENNA_sb_0__0_\.mem_right_track_8\.sky130_fd_sc_hd__dfrtp_1_1__RESET_B
*691 ANTENNA_sb_0__0_\.mem_top_track_0\.sky130_fd_sc_hd__dfrtp_1_0__RESET_B
*692 ANTENNA_sb_0__0_\.mem_top_track_0\.sky130_fd_sc_hd__dfrtp_1_1__D
*693 ANTENNA_sb_0__0_\.mem_top_track_0\.sky130_fd_sc_hd__dfrtp_1_1__RESET_B
*694 ANTENNA_sb_0__0_\.mem_top_track_10\.sky130_fd_sc_hd__dfrtp_1_0__RESET_B
*695 ANTENNA_sb_0__0_\.mem_top_track_10\.sky130_fd_sc_hd__dfrtp_1_1__RESET_B
*696 ANTENNA_sb_0__0_\.mem_top_track_12\.sky130_fd_sc_hd__dfrtp_1_0__RESET_B
*697 ANTENNA_sb_0__0_\.mem_top_track_12\.sky130_fd_sc_hd__dfrtp_1_1__RESET_B
*698 ANTENNA_sb_0__0_\.mem_top_track_14\.sky130_fd_sc_hd__dfrtp_1_0__RESET_B
*699 ANTENNA_sb_0__0_\.mem_top_track_14\.sky130_fd_sc_hd__dfrtp_1_1__RESET_B
*700 ANTENNA_sb_0__0_\.mem_top_track_16\.sky130_fd_sc_hd__dfrtp_1_0__RESET_B
*701 ANTENNA_sb_0__0_\.mem_top_track_16\.sky130_fd_sc_hd__dfrtp_1_1__RESET_B
*702 ANTENNA_sb_0__0_\.mem_top_track_18\.sky130_fd_sc_hd__dfrtp_1_0__RESET_B
*703 ANTENNA_sb_0__0_\.mem_top_track_18\.sky130_fd_sc_hd__dfrtp_1_1__RESET_B
*704 ANTENNA_sb_0__0_\.mem_top_track_2\.sky130_fd_sc_hd__dfrtp_1_0__RESET_B
*705 ANTENNA_sb_0__0_\.mem_top_track_2\.sky130_fd_sc_hd__dfrtp_1_1__RESET_B
*706 ANTENNA_sb_0__0_\.mem_top_track_28\.sky130_fd_sc_hd__dfrtp_1_0__RESET_B
*707 ANTENNA_sb_0__0_\.mem_top_track_28\.sky130_fd_sc_hd__dfrtp_1_1__RESET_B
*708 ANTENNA_sb_0__0_\.mem_top_track_30\.sky130_fd_sc_hd__dfrtp_1_0__RESET_B
*709 ANTENNA_sb_0__0_\.mem_top_track_30\.sky130_fd_sc_hd__dfrtp_1_1__RESET_B
*710 ANTENNA_sb_0__0_\.mem_top_track_32\.sky130_fd_sc_hd__dfrtp_1_0__RESET_B
*711 ANTENNA_sb_0__0_\.mem_top_track_32\.sky130_fd_sc_hd__dfrtp_1_1__RESET_B
*712 ANTENNA_sb_0__0_\.mem_top_track_34\.sky130_fd_sc_hd__dfrtp_1_0__RESET_B
*713 ANTENNA_sb_0__0_\.mem_top_track_34\.sky130_fd_sc_hd__dfrtp_1_1__RESET_B
*714 ANTENNA_sb_0__0_\.mem_top_track_4\.sky130_fd_sc_hd__dfrtp_1_0__RESET_B
*715 ANTENNA_sb_0__0_\.mem_top_track_4\.sky130_fd_sc_hd__dfrtp_1_1__RESET_B
*716 ANTENNA_sb_0__0_\.mem_top_track_44\.sky130_fd_sc_hd__dfrtp_1_0__RESET_B
*717 ANTENNA_sb_0__0_\.mem_top_track_44\.sky130_fd_sc_hd__dfrtp_1_1__RESET_B
*718 ANTENNA_sb_0__0_\.mem_top_track_46\.sky130_fd_sc_hd__dfrtp_1_0__RESET_B
*719 ANTENNA_sb_0__0_\.mem_top_track_46\.sky130_fd_sc_hd__dfrtp_1_1__RESET_B
*720 ANTENNA_sb_0__0_\.mem_top_track_48\.sky130_fd_sc_hd__dfrtp_1_0__RESET_B
*721 ANTENNA_sb_0__0_\.mem_top_track_48\.sky130_fd_sc_hd__dfrtp_1_1__RESET_B
*722 ANTENNA_sb_0__0_\.mem_top_track_50\.sky130_fd_sc_hd__dfrtp_1_0__RESET_B
*723 ANTENNA_sb_0__0_\.mem_top_track_50\.sky130_fd_sc_hd__dfrtp_1_1__RESET_B
*724 ANTENNA_sb_0__0_\.mem_top_track_6\.sky130_fd_sc_hd__dfrtp_1_0__RESET_B
*725 ANTENNA_sb_0__0_\.mem_top_track_6\.sky130_fd_sc_hd__dfrtp_1_1__RESET_B
*726 ANTENNA_sb_0__0_\.mem_top_track_8\.sky130_fd_sc_hd__dfrtp_1_0__RESET_B
*727 ANTENNA_sb_0__0_\.mem_top_track_8\.sky130_fd_sc_hd__dfrtp_1_1__RESET_B
*728 ANTENNA_sb_0__0_\.mux_right_track_0\.mux_l1_in_0__A1
*729 ANTENNA_sb_0__0_\.mux_right_track_10\.mux_l1_in_0__A1
*730 ANTENNA_sb_0__0_\.mux_right_track_12\.mux_l1_in_0__A1
*731 ANTENNA_sb_0__0_\.mux_right_track_14\.mux_l1_in_0__A1
*732 ANTENNA_sb_0__0_\.mux_right_track_16\.mux_l1_in_0__A1
*733 ANTENNA_sb_0__0_\.mux_right_track_18\.mux_l1_in_0__A1
*734 ANTENNA_sb_0__0_\.mux_right_track_2\.mux_l2_in_0__A0
*735 ANTENNA_sb_0__0_\.mux_right_track_2\.sky130_fd_sc_hd__buf_4_0__A
*736 ANTENNA_sb_0__0_\.mux_right_track_34\.mux_l1_in_0__A1
*737 ANTENNA_sb_0__0_\.mux_right_track_4\.mux_l1_in_0__A1
*738 ANTENNA_sb_0__0_\.mux_right_track_4\.mux_l2_in_0__A0
*739 ANTENNA_sb_0__0_\.mux_right_track_6\.sky130_fd_sc_hd__buf_4_0__A
*740 ANTENNA_sb_0__0_\.mux_right_track_8\.mux_l1_in_0__A1
*741 ANTENNA_sb_0__0_\.mux_right_track_8\.mux_l2_in_0__A0
*742 ANTENNA_sb_0__0_\.mux_right_track_8\.sky130_fd_sc_hd__buf_4_0__A
*743 ANTENNA_sb_0__0_\.mux_top_track_0\.mux_l1_in_0__A0
*744 ANTENNA_sb_0__0_\.mux_top_track_0\.mux_l1_in_0__A1
*745 ANTENNA_sb_0__0_\.mux_top_track_0\.mux_l1_in_0__S
*746 ANTENNA_sb_0__0_\.mux_top_track_0\.mux_l1_in_1__S
*747 ANTENNA_sb_0__0_\.mux_top_track_10\.mux_l1_in_0__A1
*748 ANTENNA_sb_0__0_\.mux_top_track_12\.mux_l1_in_0__A1
*749 ANTENNA_sb_0__0_\.mux_top_track_14\.mux_l1_in_0__A1
*750 ANTENNA_sb_0__0_\.mux_top_track_16\.mux_l1_in_0__A1
*751 ANTENNA_sb_0__0_\.mux_top_track_18\.mux_l1_in_0__A1
*752 ANTENNA_sb_0__0_\.mux_top_track_2\.mux_l1_in_0__A0
*753 ANTENNA_sb_0__0_\.mux_top_track_2\.mux_l1_in_0__A1
*754 ANTENNA_sb_0__0_\.mux_top_track_28\.mux_l1_in_0__A1
*755 ANTENNA_sb_0__0_\.mux_top_track_30\.mux_l1_in_0__A1
*756 ANTENNA_sb_0__0_\.mux_top_track_32\.mux_l1_in_0__A1
*757 ANTENNA_sb_0__0_\.mux_top_track_34\.mux_l1_in_0__A1
*758 ANTENNA_sb_0__0_\.mux_top_track_4\.mux_l1_in_0__A0
*759 ANTENNA_sb_0__0_\.mux_top_track_4\.mux_l1_in_0__A1
*760 ANTENNA_sb_0__0_\.mux_top_track_4\.sky130_fd_sc_hd__buf_4_0__A
*761 ANTENNA_sb_0__0_\.mux_top_track_44\.mux_l1_in_0__A1
*762 ANTENNA_sb_0__0_\.mux_top_track_46\.mux_l1_in_0__A1
*763 ANTENNA_sb_0__0_\.mux_top_track_48\.mux_l1_in_0__A1
*764 ANTENNA_sb_0__0_\.mux_top_track_50\.mux_l1_in_0__A1
*765 ANTENNA_sb_0__0_\.mux_top_track_6\.mux_l1_in_0__A0
*766 ANTENNA_sb_0__0_\.mux_top_track_6\.mux_l1_in_0__A1
*767 ANTENNA_sb_0__0_\.mux_top_track_6\.mux_l1_in_1__A0
*768 ANTENNA_sb_0__0_\.mux_top_track_6\.sky130_fd_sc_hd__buf_4_0__A
*769 ANTENNA_sb_0__0_\.mux_top_track_8\.mux_l1_in_0__A1
*770 ANTENNA_sb_0__0_\.mux_top_track_8\.sky130_fd_sc_hd__buf_4_0__A
*771 FILLER_0_109
*772 FILLER_0_113
*773 FILLER_0_125
*774 FILLER_0_137
*775 FILLER_0_141
*776 FILLER_0_15
*777 FILLER_0_153
*778 FILLER_0_165
*779 FILLER_0_169
*780 FILLER_0_181
*781 FILLER_0_193
*782 FILLER_0_197
*783 FILLER_0_205
*784 FILLER_0_222
*785 FILLER_0_225
*786 FILLER_0_233
*787 FILLER_0_250
*788 FILLER_0_253
*789 FILLER_0_258
*790 FILLER_0_27
*791 FILLER_0_29
*792 FILLER_0_3
*793 FILLER_0_41
*794 FILLER_0_53
*795 FILLER_0_57
*796 FILLER_0_62
*797 FILLER_0_74
*798 FILLER_0_82
*799 FILLER_0_85
*800 FILLER_0_97
*801 FILLER_10_109
*802 FILLER_10_121
*803 FILLER_10_133
*804 FILLER_10_139
*805 FILLER_10_141
*806 FILLER_10_15
*807 FILLER_10_153
*808 FILLER_10_165
*809 FILLER_10_177
*810 FILLER_10_189
*811 FILLER_10_194
*812 FILLER_10_197
*813 FILLER_10_203
*814 FILLER_10_208
*815 FILLER_10_212
*816 FILLER_10_216
*817 FILLER_10_223
*818 FILLER_10_230
*819 FILLER_10_250
*820 FILLER_10_253
*821 FILLER_10_258
*822 FILLER_10_264
*823 FILLER_10_27
*824 FILLER_10_29
*825 FILLER_10_3
*826 FILLER_10_41
*827 FILLER_10_53
*828 FILLER_10_65
*829 FILLER_10_77
*830 FILLER_10_83
*831 FILLER_10_85
*832 FILLER_10_97
*833 FILLER_11_105
*834 FILLER_11_111
*835 FILLER_11_113
*836 FILLER_11_125
*837 FILLER_11_137
*838 FILLER_11_149
*839 FILLER_11_15
*840 FILLER_11_161
*841 FILLER_11_167
*842 FILLER_11_169
*843 FILLER_11_181
*844 FILLER_11_189
*845 FILLER_11_195
*846 FILLER_11_202
*847 FILLER_11_210
*848 FILLER_11_215
*849 FILLER_11_222
*850 FILLER_11_225
*851 FILLER_11_244
*852 FILLER_11_264
*853 FILLER_11_27
*854 FILLER_11_3
*855 FILLER_11_39
*856 FILLER_11_51
*857 FILLER_11_55
*858 FILLER_11_57
*859 FILLER_11_69
*860 FILLER_11_81
*861 FILLER_11_93
*862 FILLER_12_117
*863 FILLER_12_121
*864 FILLER_12_133
*865 FILLER_12_139
*866 FILLER_12_141
*867 FILLER_12_15
*868 FILLER_12_153
*869 FILLER_12_165
*870 FILLER_12_177
*871 FILLER_12_182
*872 FILLER_12_194
*873 FILLER_12_197
*874 FILLER_12_202
*875 FILLER_12_209
*876 FILLER_12_218
*877 FILLER_12_230
*878 FILLER_12_250
*879 FILLER_12_265
*880 FILLER_12_27
*881 FILLER_12_29
*882 FILLER_12_3
*883 FILLER_12_41
*884 FILLER_12_53
*885 FILLER_12_65
*886 FILLER_12_77
*887 FILLER_12_83
*888 FILLER_12_85
*889 FILLER_13_105
*890 FILLER_13_111
*891 FILLER_13_113
*892 FILLER_13_125
*893 FILLER_13_137
*894 FILLER_13_149
*895 FILLER_13_15
*896 FILLER_13_161
*897 FILLER_13_167
*898 FILLER_13_169
*899 FILLER_13_175
*900 FILLER_13_180
*901 FILLER_13_187
*902 FILLER_13_194
*903 FILLER_13_198
*904 FILLER_13_202
*905 FILLER_13_209
*906 FILLER_13_217
*907 FILLER_13_222
*908 FILLER_13_225
*909 FILLER_13_244
*910 FILLER_13_264
*911 FILLER_13_27
*912 FILLER_13_3
*913 FILLER_13_39
*914 FILLER_13_51
*915 FILLER_13_55
*916 FILLER_13_57
*917 FILLER_13_69
*918 FILLER_13_81
*919 FILLER_13_93
*920 FILLER_14_109
*921 FILLER_14_121
*922 FILLER_14_133
*923 FILLER_14_139
*924 FILLER_14_141
*925 FILLER_14_15
*926 FILLER_14_153
*927 FILLER_14_165
*928 FILLER_14_168
*929 FILLER_14_173
*930 FILLER_14_180
*931 FILLER_14_187
*932 FILLER_14_194
*933 FILLER_14_197
*934 FILLER_14_202
*935 FILLER_14_209
*936 FILLER_14_216
*937 FILLER_14_241
*938 FILLER_14_245
*939 FILLER_14_250
*940 FILLER_14_253
*941 FILLER_14_264
*942 FILLER_14_27
*943 FILLER_14_29
*944 FILLER_14_3
*945 FILLER_14_41
*946 FILLER_14_53
*947 FILLER_14_65
*948 FILLER_14_77
*949 FILLER_14_83
*950 FILLER_14_85
*951 FILLER_14_97
*952 FILLER_15_105
*953 FILLER_15_111
*954 FILLER_15_113
*955 FILLER_15_125
*956 FILLER_15_137
*957 FILLER_15_149
*958 FILLER_15_15
*959 FILLER_15_157
*960 FILLER_15_161
*961 FILLER_15_166
*962 FILLER_15_180
*963 FILLER_15_187
*964 FILLER_15_194
*965 FILLER_15_201