*SPEF "ieee 1481-1999"
*DESIGN "bottom_left_tile"
*DATE "11:11:11 Fri 11 11, 1111"
*VENDOR "OpenRCX"
*PROGRAM "Parallel Extraction"
*VERSION "1.0"
*DESIGN_FLOW "NAME_SCOPE LOCAL" "PIN_CAP NONE"
*DIVIDER /
*DELIMITER :
*BUS_DELIMITER []
*T_UNIT 1 NS
*C_UNIT 1 PF
*R_UNIT 1 OHM
*L_UNIT 1 HENRY

*NAME_MAP
*3 ccff_head
*4 ccff_tail
*5 chanx_right_in[0]
*6 chanx_right_in[10]
*7 chanx_right_in[11]
*8 chanx_right_in[12]
*9 chanx_right_in[13]
*10 chanx_right_in[14]
*11 chanx_right_in[15]
*12 chanx_right_in[16]
*13 chanx_right_in[17]
*14 chanx_right_in[18]
*15 chanx_right_in[19]
*16 chanx_right_in[1]
*17 chanx_right_in[20]
*18 chanx_right_in[21]
*19 chanx_right_in[22]
*20 chanx_right_in[23]
*21 chanx_right_in[24]
*22 chanx_right_in[25]
*23 chanx_right_in[26]
*24 chanx_right_in[27]
*25 chanx_right_in[28]
*26 chanx_right_in[29]
*27 chanx_right_in[2]
*28 chanx_right_in[3]
*29 chanx_right_in[4]
*30 chanx_right_in[5]
*31 chanx_right_in[6]
*32 chanx_right_in[7]
*33 chanx_right_in[8]
*34 chanx_right_in[9]
*35 chanx_right_out[0]
*36 chanx_right_out[10]
*37 chanx_right_out[11]
*38 chanx_right_out[12]
*39 chanx_right_out[13]
*40 chanx_right_out[14]
*41 chanx_right_out[15]
*42 chanx_right_out[16]
*43 chanx_right_out[17]
*44 chanx_right_out[18]
*45 chanx_right_out[19]
*46 chanx_right_out[1]
*47 chanx_right_out[20]
*48 chanx_right_out[21]
*49 chanx_right_out[22]
*50 chanx_right_out[23]
*51 chanx_right_out[24]
*52 chanx_right_out[25]
*53 chanx_right_out[26]
*54 chanx_right_out[27]
*55 chanx_right_out[28]
*56 chanx_right_out[29]
*57 chanx_right_out[2]
*58 chanx_right_out[3]
*59 chanx_right_out[4]
*60 chanx_right_out[5]
*61 chanx_right_out[6]
*62 chanx_right_out[7]
*63 chanx_right_out[8]
*64 chanx_right_out[9]
*65 chany_top_in[0]
*66 chany_top_in[10]
*67 chany_top_in[11]
*68 chany_top_in[12]
*69 chany_top_in[13]
*70 chany_top_in[14]
*71 chany_top_in[15]
*72 chany_top_in[16]
*73 chany_top_in[17]
*74 chany_top_in[18]
*75 chany_top_in[19]
*76 chany_top_in[1]
*77 chany_top_in[20]
*78 chany_top_in[21]
*79 chany_top_in[22]
*80 chany_top_in[23]
*81 chany_top_in[24]
*82 chany_top_in[25]
*83 chany_top_in[26]
*84 chany_top_in[27]
*85 chany_top_in[28]
*86 chany_top_in[29]
*87 chany_top_in[2]
*88 chany_top_in[3]
*89 chany_top_in[4]
*90 chany_top_in[5]
*91 chany_top_in[6]
*92 chany_top_in[7]
*93 chany_top_in[8]
*94 chany_top_in[9]
*95 chany_top_out[0]
*96 chany_top_out[10]
*97 chany_top_out[11]
*98 chany_top_out[12]
*99 chany_top_out[13]
*100 chany_top_out[14]
*101 chany_top_out[15]
*102 chany_top_out[16]
*103 chany_top_out[17]
*104 chany_top_out[18]
*105 chany_top_out[19]
*106 chany_top_out[1]
*107 chany_top_out[20]
*108 chany_top_out[21]
*109 chany_top_out[22]
*110 chany_top_out[23]
*111 chany_top_out[24]
*112 chany_top_out[25]
*113 chany_top_out[26]
*114 chany_top_out[27]
*115 chany_top_out[28]
*116 chany_top_out[29]
*117 chany_top_out[2]
*118 chany_top_out[3]
*119 chany_top_out[4]
*120 chany_top_out[5]
*121 chany_top_out[6]
*122 chany_top_out[7]
*123 chany_top_out[8]
*124 chany_top_out[9]
*125 prog_clk
*126 prog_reset
*127 reset
*128 right_bottom_grid_top_width_0_height_0_subtile_0__pin_inpad_0_
*129 right_bottom_grid_top_width_0_height_0_subtile_1__pin_inpad_0_
*130 right_bottom_grid_top_width_0_height_0_subtile_2__pin_inpad_0_
*131 right_bottom_grid_top_width_0_height_0_subtile_3__pin_inpad_0_
*132 test_enable
*133 top_left_grid_right_width_0_height_0_subtile_0__pin_inpad_0_
*134 top_left_grid_right_width_0_height_0_subtile_1__pin_inpad_0_
*135 top_left_grid_right_width_0_height_0_subtile_2__pin_inpad_0_
*136 top_left_grid_right_width_0_height_0_subtile_3__pin_inpad_0_
*137 clknet_0_prog_clk
*138 clknet_3_0__leaf_prog_clk
*139 clknet_3_1__leaf_prog_clk
*140 clknet_3_2__leaf_prog_clk
*141 clknet_3_3__leaf_prog_clk
*142 clknet_3_4__leaf_prog_clk
*143 clknet_3_5__leaf_prog_clk
*144 clknet_3_6__leaf_prog_clk
*145 clknet_3_7__leaf_prog_clk
*146 net1
*147 net10
*148 net100
*149 net101
*150 net102
*151 net103
*152 net104
*153 net105
*154 net106
*155 net107
*156 net108
*157 net109
*158 net11
*159 net110
*160 net111
*161 net112
*162 net113
*163 net114
*164 net115
*165 net116
*166 net117
*167 net118
*168 net119
*169 net12
*170 net120
*171 net121
*172 net122
*173 net123
*174 net124
*175 net125
*176 net126
*177 net127
*178 net128
*179 net129
*180 net13
*181 net130
*182 net131
*183 net132
*184 net133
*185 net134
*186 net135
*187 net136
*188 net137
*189 net138
*190 net139
*191 net14
*192 net140
*193 net141
*194 net142
*195 net143
*196 net144
*197 net145
*198 net146
*199 net147
*200 net148
*201 net149
*202 net15
*203 net150
*204 net151
*205 net152
*206 net153
*207 net154
*208 net155
*209 net156
*210 net157
*211 net158
*212 net159
*213 net16
*214 net160
*215 net161
*216 net162
*217 net163
*218 net164
*219 net165
*220 net166
*221 net167
*222 net168
*223 net169
*224 net17
*225 net170
*226 net171
*227 net172
*228 net173
*229 net174
*230 net175
*231 net176
*232 net177
*233 net178
*234 net179
*235 net18
*236 net180
*237 net181
*238 net182
*239 net183
*240 net184
*241 net185
*242 net186
*243 net187
*244 net188
*245 net189
*246 net19
*247 net190
*248 net191
*249 net192
*250 net193
*251 net194
*252 net195
*253 net196
*254 net197
*255 net198
*256 net199
*257 net2
*258 net20
*259 net200
*260 net201
*261 net202
*262 net203
*263 net204
*264 net205
*265 net206
*266 net207
*267 net208
*268 net209
*269 net21
*270 net210
*271 net211
*272 net212
*273 net213
*274 net214
*275 net215
*276 net216
*277 net217
*278 net218
*279 net219
*280 net22
*281 net220
*282 net221
*283 net222
*284 net223
*285 net224
*286 net225
*287 net226
*288 net227
*289 net228
*290 net229
*291 net23
*292 net230
*293 net24
*294 net25
*295 net26
*296 net27
*297 net28
*298 net29
*299 net3
*300 net30
*301 net31
*302 net32
*303 net33
*304 net34
*305 net35
*306 net36
*307 net37
*308 net38
*309 net39
*310 net4
*311 net40
*312 net41
*313 net42
*314 net43
*315 net44
*316 net45
*317 net46
*318 net47
*319 net48
*320 net49
*321 net5
*322 net50
*323 net51
*324 net52
*325 net53
*326 net54
*327 net55
*328 net56
*329 net57
*330 net58
*331 net59
*332 net6
*333 net60
*334 net61
*335 net62
*336 net63
*337 net64
*338 net65
*339 net66
*340 net67
*341 net68
*342 net69
*343 net7
*344 net70
*345 net71
*346 net72
*347 net73
*348 net74
*349 net75
*350 net76
*351 net77
*352 net78
*353 net79
*354 net8
*355 net80
*356 net81
*357 net82
*358 net83
*359 net84
*360 net85
*361 net86
*362 net87
*363 net88
*364 net89
*365 net9
*366 net90
*367 net91
*368 net92
*369 net93
*370 net94
*371 net95
*372 net96
*373 net97
*374 net98
*375 net99
*376 sb_0__0_\.mem_right_track_0\.ccff_head
*377 sb_0__0_\.mem_right_track_0\.ccff_tail
*378 sb_0__0_\.mem_right_track_0\.mem_out\[0\]
*379 sb_0__0_\.mem_right_track_10\.ccff_head
*380 sb_0__0_\.mem_right_track_10\.ccff_tail
*381 sb_0__0_\.mem_right_track_10\.mem_out\[0\]
*382 sb_0__0_\.mem_right_track_12\.ccff_tail
*383 sb_0__0_\.mem_right_track_12\.mem_out\[0\]
*384 sb_0__0_\.mem_right_track_14\.ccff_tail
*385 sb_0__0_\.mem_right_track_14\.mem_out\[0\]
*386 sb_0__0_\.mem_right_track_16\.ccff_tail
*387 sb_0__0_\.mem_right_track_16\.mem_out\[0\]
*388 sb_0__0_\.mem_right_track_18\.ccff_tail
*389 sb_0__0_\.mem_right_track_18\.mem_out\[0\]
*390 sb_0__0_\.mem_right_track_2\.ccff_tail
*391 sb_0__0_\.mem_right_track_2\.mem_out\[0\]
*392 sb_0__0_\.mem_right_track_28\.ccff_tail
*393 sb_0__0_\.mem_right_track_28\.mem_out\[0\]
*394 sb_0__0_\.mem_right_track_30\.ccff_tail
*395 sb_0__0_\.mem_right_track_30\.mem_out\[0\]
*396 sb_0__0_\.mem_right_track_32\.ccff_tail
*397 sb_0__0_\.mem_right_track_32\.mem_out\[0\]
*398 sb_0__0_\.mem_right_track_34\.ccff_tail
*399 sb_0__0_\.mem_right_track_34\.mem_out\[0\]
*400 sb_0__0_\.mem_right_track_4\.ccff_tail
*401 sb_0__0_\.mem_right_track_4\.mem_out\[0\]
*402 sb_0__0_\.mem_right_track_44\.ccff_tail
*403 sb_0__0_\.mem_right_track_44\.mem_out\[0\]
*404 sb_0__0_\.mem_right_track_46\.ccff_tail
*405 sb_0__0_\.mem_right_track_46\.mem_out\[0\]
*406 sb_0__0_\.mem_right_track_48\.ccff_tail
*407 sb_0__0_\.mem_right_track_48\.mem_out\[0\]
*408 sb_0__0_\.mem_right_track_50\.mem_out\[0\]
*409 sb_0__0_\.mem_right_track_6\.ccff_tail
*410 sb_0__0_\.mem_right_track_6\.mem_out\[0\]
*411 sb_0__0_\.mem_right_track_8\.mem_out\[0\]
*412 sb_0__0_\.mem_top_track_0\.ccff_tail
*413 sb_0__0_\.mem_top_track_0\.mem_out\[0\]
*414 sb_0__0_\.mem_top_track_10\.ccff_head
*415 sb_0__0_\.mem_top_track_10\.ccff_tail
*416 sb_0__0_\.mem_top_track_10\.mem_out\[0\]
*417 sb_0__0_\.mem_top_track_12\.ccff_tail
*418 sb_0__0_\.mem_top_track_12\.mem_out\[0\]
*419 sb_0__0_\.mem_top_track_14\.ccff_tail
*420 sb_0__0_\.mem_top_track_14\.mem_out\[0\]
*421 sb_0__0_\.mem_top_track_16\.ccff_tail
*422 sb_0__0_\.mem_top_track_16\.mem_out\[0\]
*423 sb_0__0_\.mem_top_track_18\.ccff_tail
*424 sb_0__0_\.mem_top_track_18\.mem_out\[0\]
*425 sb_0__0_\.mem_top_track_2\.ccff_tail
*426 sb_0__0_\.mem_top_track_2\.mem_out\[0\]
*427 sb_0__0_\.mem_top_track_28\.ccff_tail
*428 sb_0__0_\.mem_top_track_28\.mem_out\[0\]
*429 sb_0__0_\.mem_top_track_30\.ccff_tail
*430 sb_0__0_\.mem_top_track_30\.mem_out\[0\]
*431 sb_0__0_\.mem_top_track_32\.ccff_tail
*432 sb_0__0_\.mem_top_track_32\.mem_out\[0\]
*433 sb_0__0_\.mem_top_track_34\.ccff_tail
*434 sb_0__0_\.mem_top_track_34\.mem_out\[0\]
*435 sb_0__0_\.mem_top_track_4\.ccff_tail
*436 sb_0__0_\.mem_top_track_4\.mem_out\[0\]
*437 sb_0__0_\.mem_top_track_44\.ccff_tail
*438 sb_0__0_\.mem_top_track_44\.mem_out\[0\]
*439 sb_0__0_\.mem_top_track_46\.ccff_tail
*440 sb_0__0_\.mem_top_track_46\.mem_out\[0\]
*441 sb_0__0_\.mem_top_track_48\.ccff_tail
*442 sb_0__0_\.mem_top_track_48\.mem_out\[0\]
*443 sb_0__0_\.mem_top_track_50\.mem_out\[0\]
*444 sb_0__0_\.mem_top_track_6\.ccff_tail
*445 sb_0__0_\.mem_top_track_6\.mem_out\[0\]
*446 sb_0__0_\.mem_top_track_8\.mem_out\[0\]
*447 sb_0__0_\.mux_right_track_0\.out
*448 sb_0__0_\.mux_right_track_0\.sky130_fd_sc_hd__mux2_1_0_X
*449 sb_0__0_\.mux_right_track_0\.sky130_fd_sc_hd__mux2_1_1_X
*450 sb_0__0_\.mux_right_track_0\.sky130_fd_sc_hd__mux2_1_2_X
*451 sb_0__0_\.mux_right_track_10\.out
*452 sb_0__0_\.mux_right_track_10\.sky130_fd_sc_hd__mux2_1_0_X
*453 sb_0__0_\.mux_right_track_10\.sky130_fd_sc_hd__mux2_1_1_X
*454 sb_0__0_\.mux_right_track_12\.out
*455 sb_0__0_\.mux_right_track_12\.sky130_fd_sc_hd__mux2_1_0_X
*456 sb_0__0_\.mux_right_track_12\.sky130_fd_sc_hd__mux2_1_1_X
*457 sb_0__0_\.mux_right_track_14\.out
*458 sb_0__0_\.mux_right_track_14\.sky130_fd_sc_hd__mux2_1_0_X
*459 sb_0__0_\.mux_right_track_14\.sky130_fd_sc_hd__mux2_1_1_X
*460 sb_0__0_\.mux_right_track_16\.out
*461 sb_0__0_\.mux_right_track_16\.sky130_fd_sc_hd__mux2_1_0_X
*462 sb_0__0_\.mux_right_track_16\.sky130_fd_sc_hd__mux2_1_1_X
*463 sb_0__0_\.mux_right_track_18\.out
*464 sb_0__0_\.mux_right_track_18\.sky130_fd_sc_hd__mux2_1_0_X
*465 sb_0__0_\.mux_right_track_18\.sky130_fd_sc_hd__mux2_1_1_X
*466 sb_0__0_\.mux_right_track_2\.out
*467 sb_0__0_\.mux_right_track_2\.sky130_fd_sc_hd__mux2_1_0_X
*468 sb_0__0_\.mux_right_track_2\.sky130_fd_sc_hd__mux2_1_1_X
*469 sb_0__0_\.mux_right_track_28\.out
*470 sb_0__0_\.mux_right_track_28\.sky130_fd_sc_hd__mux2_1_0_X
*471 sb_0__0_\.mux_right_track_28\.sky130_fd_sc_hd__mux2_1_1_X
*472 sb_0__0_\.mux_right_track_30\.out
*473 sb_0__0_\.mux_right_track_30\.sky130_fd_sc_hd__mux2_1_0_X
*474 sb_0__0_\.mux_right_track_30\.sky130_fd_sc_hd__mux2_1_1_X
*475 sb_0__0_\.mux_right_track_32\.out
*476 sb_0__0_\.mux_right_track_32\.sky130_fd_sc_hd__mux2_1_0_X
*477 sb_0__0_\.mux_right_track_32\.sky130_fd_sc_hd__mux2_1_1_X
*478 sb_0__0_\.mux_right_track_34\.out
*479 sb_0__0_\.mux_right_track_34\.sky130_fd_sc_hd__mux2_1_0_X
*480 sb_0__0_\.mux_right_track_34\.sky130_fd_sc_hd__mux2_1_1_X
*481 sb_0__0_\.mux_right_track_4\.out
*482 sb_0__0_\.mux_right_track_4\.sky130_fd_sc_hd__mux2_1_0_X
*483 sb_0__0_\.mux_right_track_4\.sky130_fd_sc_hd__mux2_1_1_X
*484 sb_0__0_\.mux_right_track_44\.out
*485 sb_0__0_\.mux_right_track_44\.sky130_fd_sc_hd__mux2_1_0_X
*486 sb_0__0_\.mux_right_track_44\.sky130_fd_sc_hd__mux2_1_1_X
*487 sb_0__0_\.mux_right_track_46\.out
*488 sb_0__0_\.mux_right_track_46\.sky130_fd_sc_hd__mux2_1_0_X
*489 sb_0__0_\.mux_right_track_46\.sky130_fd_sc_hd__mux2_1_1_X
*490 sb_0__0_\.mux_right_track_48\.out
*491 sb_0__0_\.mux_right_track_48\.sky130_fd_sc_hd__mux2_1_0_X
*492 sb_0__0_\.mux_right_track_48\.sky130_fd_sc_hd__mux2_1_1_X
*493 sb_0__0_\.mux_right_track_50\.out
*494 sb_0__0_\.mux_right_track_50\.sky130_fd_sc_hd__mux2_1_0_X
*495 sb_0__0_\.mux_right_track_50\.sky130_fd_sc_hd__mux2_1_1_X
*496 sb_0__0_\.mux_right_track_6\.out
*497 sb_0__0_\.mux_right_track_6\.sky130_fd_sc_hd__mux2_1_0_X
*498 sb_0__0_\.mux_right_track_6\.sky130_fd_sc_hd__mux2_1_1_X
*499 sb_0__0_\.mux_right_track_6\.sky130_fd_sc_hd__mux2_1_2_X
*500 sb_0__0_\.mux_right_track_8\.out
*501 sb_0__0_\.mux_right_track_8\.sky130_fd_sc_hd__mux2_1_0_X
*502 sb_0__0_\.mux_right_track_8\.sky130_fd_sc_hd__mux2_1_1_X
*503 sb_0__0_\.mux_top_track_0\.out
*504 sb_0__0_\.mux_top_track_0\.sky130_fd_sc_hd__mux2_1_0_X
*505 sb_0__0_\.mux_top_track_0\.sky130_fd_sc_hd__mux2_1_1_X
*506 sb_0__0_\.mux_top_track_0\.sky130_fd_sc_hd__mux2_1_2_X
*507 sb_0__0_\.mux_top_track_10\.out
*508 sb_0__0_\.mux_top_track_10\.sky130_fd_sc_hd__mux2_1_0_X
*509 sb_0__0_\.mux_top_track_10\.sky130_fd_sc_hd__mux2_1_1_X
*510 sb_0__0_\.mux_top_track_12\.out
*511 sb_0__0_\.mux_top_track_12\.sky130_fd_sc_hd__mux2_1_0_X
*512 sb_0__0_\.mux_top_track_12\.sky130_fd_sc_hd__mux2_1_1_X
*513 sb_0__0_\.mux_top_track_14\.out
*514 sb_0__0_\.mux_top_track_14\.sky130_fd_sc_hd__mux2_1_0_X
*515 sb_0__0_\.mux_top_track_14\.sky130_fd_sc_hd__mux2_1_1_X
*516 sb_0__0_\.mux_top_track_16\.out
*517 sb_0__0_\.mux_top_track_16\.sky130_fd_sc_hd__mux2_1_0_X
*518 sb_0__0_\.mux_top_track_16\.sky130_fd_sc_hd__mux2_1_1_X
*519 sb_0__0_\.mux_top_track_18\.out
*520 sb_0__0_\.mux_top_track_18\.sky130_fd_sc_hd__mux2_1_0_X
*521 sb_0__0_\.mux_top_track_18\.sky130_fd_sc_hd__mux2_1_1_X
*522 sb_0__0_\.mux_top_track_2\.out
*523 sb_0__0_\.mux_top_track_2\.sky130_fd_sc_hd__mux2_1_0_X
*524 sb_0__0_\.mux_top_track_2\.sky130_fd_sc_hd__mux2_1_1_X
*525 sb_0__0_\.mux_top_track_28\.out
*526 sb_0__0_\.mux_top_track_28\.sky130_fd_sc_hd__mux2_1_0_X
*527 sb_0__0_\.mux_top_track_28\.sky130_fd_sc_hd__mux2_1_1_X
*528 sb_0__0_\.mux_top_track_30\.out
*529 sb_0__0_\.mux_top_track_30\.sky130_fd_sc_hd__mux2_1_0_X
*530 sb_0__0_\.mux_top_track_30\.sky130_fd_sc_hd__mux2_1_1_X
*531 sb_0__0_\.mux_top_track_32\.out
*532 sb_0__0_\.mux_top_track_32\.sky130_fd_sc_hd__mux2_1_0_X
*533 sb_0__0_\.mux_top_track_32\.sky130_fd_sc_hd__mux2_1_1_X
*534 sb_0__0_\.mux_top_track_34\.out
*535 sb_0__0_\.mux_top_track_34\.sky130_fd_sc_hd__mux2_1_0_X
*536 sb_0__0_\.mux_top_track_34\.sky130_fd_sc_hd__mux2_1_1_X
*537 sb_0__0_\.mux_top_track_4\.out
*538 sb_0__0_\.mux_top_track_4\.sky130_fd_sc_hd__mux2_1_0_X
*539 sb_0__0_\.mux_top_track_4\.sky130_fd_sc_hd__mux2_1_1_X
*540 sb_0__0_\.mux_top_track_44\.out
*541 sb_0__0_\.mux_top_track_44\.sky130_fd_sc_hd__mux2_1_0_X
*542 sb_0__0_\.mux_top_track_44\.sky130_fd_sc_hd__mux2_1_1_X
*543 sb_0__0_\.mux_top_track_46\.out
*544 sb_0__0_\.mux_top_track_46\.sky130_fd_sc_hd__mux2_1_0_X
*545 sb_0__0_\.mux_top_track_46\.sky130_fd_sc_hd__mux2_1_1_X
*546 sb_0__0_\.mux_top_track_48\.out
*547 sb_0__0_\.mux_top_track_48\.sky130_fd_sc_hd__mux2_1_0_X
*548 sb_0__0_\.mux_top_track_48\.sky130_fd_sc_hd__mux2_1_1_X
*549 sb_0__0_\.mux_top_track_50\.out
*550 sb_0__0_\.mux_top_track_50\.sky130_fd_sc_hd__mux2_1_0_X
*551 sb_0__0_\.mux_top_track_50\.sky130_fd_sc_hd__mux2_1_1_X
*552 sb_0__0_\.mux_top_track_6\.out
*553 sb_0__0_\.mux_top_track_6\.sky130_fd_sc_hd__mux2_1_0_X
*554 sb_0__0_\.mux_top_track_6\.sky130_fd_sc_hd__mux2_1_1_X
*555 sb_0__0_\.mux_top_track_6\.sky130_fd_sc_hd__mux2_1_2_X
*556 sb_0__0_\.mux_top_track_8\.out
*557 sb_0__0_\.mux_top_track_8\.sky130_fd_sc_hd__mux2_1_0_X
*558 sb_0__0_\.mux_top_track_8\.sky130_fd_sc_hd__mux2_1_1_X
*559 ANTENNA_1
*560 ANTENNA_10
*561 ANTENNA_11
*562 ANTENNA_12
*563 ANTENNA_13
*564 ANTENNA_14
*565 ANTENNA_15
*566 ANTENNA_16
*567 ANTENNA_17
*568 ANTENNA_18
*569 ANTENNA_19
*570 ANTENNA_2
*571 ANTENNA_20
*572 ANTENNA_21
*573 ANTENNA_3
*574 ANTENNA_4
*575 ANTENNA_5
*576 ANTENNA_6
*577 ANTENNA_7
*578 ANTENNA_8
*579 ANTENNA_9
*580 ANTENNA__072__A
*581 ANTENNA__073__A
*582 ANTENNA__074__A
*583 ANTENNA__075__A
*584 ANTENNA__081__A
*585 ANTENNA__082__A
*586 ANTENNA__083__A
*587 ANTENNA__089__A
*588 ANTENNA__090__A
*589 ANTENNA__091__A
*590 ANTENNA__105__A
*591 ANTENNA__120__A
*592 ANTENNA_clkbuf_0_prog_clk_A
*593 ANTENNA_clkbuf_3_0__f_prog_clk_A
*594 ANTENNA_clkbuf_3_1__f_prog_clk_A
*595 ANTENNA_clkbuf_3_2__f_prog_clk_A
*596 ANTENNA_clkbuf_3_3__f_prog_clk_A
*597 ANTENNA_clkbuf_3_4__f_prog_clk_A
*598 ANTENNA_clkbuf_3_5__f_prog_clk_A
*599 ANTENNA_clkbuf_3_6__f_prog_clk_A
*600 ANTENNA_clkbuf_3_7__f_prog_clk_A
*601 ANTENNA_hold21_A
*602 ANTENNA_hold24_A
*603 ANTENNA_hold27_A
*604 ANTENNA_hold38_A
*605 ANTENNA_hold39_A
*606 ANTENNA_hold3_A
*607 ANTENNA_hold42_A
*608 ANTENNA_hold46_A
*609 ANTENNA_hold54_A
*610 ANTENNA_hold68_A
*611 ANTENNA_hold69_A
*612 ANTENNA_hold70_A
*613 ANTENNA_input10_A
*614 ANTENNA_input11_A
*615 ANTENNA_input12_A
*616 ANTENNA_input13_A
*617 ANTENNA_input14_A
*618 ANTENNA_input15_A
*619 ANTENNA_input16_A
*620 ANTENNA_input17_A
*621 ANTENNA_input18_A
*622 ANTENNA_input19_A
*623 ANTENNA_input1_A
*624 ANTENNA_input20_A
*625 ANTENNA_input21_A
*626 ANTENNA_input22_A
*627 ANTENNA_input23_A
*628 ANTENNA_input24_A
*629 ANTENNA_input25_A
*630 ANTENNA_input26_A
*631 ANTENNA_input27_A
*632 ANTENNA_input28_A
*633 ANTENNA_input29_A
*634 ANTENNA_input2_A
*635 ANTENNA_input30_A
*636 ANTENNA_input31_A
*637 ANTENNA_input32_A
*638 ANTENNA_input33_A
*639 ANTENNA_input34_A
*640 ANTENNA_input35_A
*641 ANTENNA_input36_A
*642 ANTENNA_input37_A
*643 ANTENNA_input38_A
*644 ANTENNA_input39_A
*645 ANTENNA_input3_A
*646 ANTENNA_input40_A
*647 ANTENNA_input41_A
*648 ANTENNA_input42_A
*649 ANTENNA_input43_A
*650 ANTENNA_input44_A
*651 ANTENNA_input45_A
*652 ANTENNA_input46_A
*653 ANTENNA_input47_A
*654 ANTENNA_input48_A
*655 ANTENNA_input49_A
*656 ANTENNA_input4_A
*657 ANTENNA_input50_A
*658 ANTENNA_input51_A
*659 ANTENNA_input52_A
*660 ANTENNA_input53_A
*661 ANTENNA_input54_A
*662 ANTENNA_input55_A
*663 ANTENNA_input56_A
*664 ANTENNA_input57_A
*665 ANTENNA_input58_A
*666 ANTENNA_input59_A
*667 ANTENNA_input5_A
*668 ANTENNA_input60_A
*669 ANTENNA_input61_A
*670 ANTENNA_input62_A
*671 ANTENNA_input6_A
*672 ANTENNA_input7_A
*673 ANTENNA_input8_A
*674 ANTENNA_input9_A
*675 ANTENNA_output115_A
*676 ANTENNA_sb_0__0_\.mem_right_track_0\.sky130_fd_sc_hd__dfrtp_1_0__RESET_B
*677 ANTENNA_sb_0__0_\.mem_right_track_0\.sky130_fd_sc_hd__dfrtp_1_1__RESET_B
*678 ANTENNA_sb_0__0_\.mem_right_track_10\.sky130_fd_sc_hd__dfrtp_1_0__RESET_B
*679 ANTENNA_sb_0__0_\.mem_right_track_10\.sky130_fd_sc_hd__dfrtp_1_1__RESET_B
*680 ANTENNA_sb_0__0_\.mem_right_track_12\.sky130_fd_sc_hd__dfrtp_1_0__RESET_B
*681 ANTENNA_sb_0__0_\.mem_right_track_12\.sky130_fd_sc_hd__dfrtp_1_1__RESET_B
*682 ANTENNA_sb_0__0_\.mem_right_track_14\.sky130_fd_sc_hd__dfrtp_1_0__RESET_B
*683 ANTENNA_sb_0__0_\.mem_right_track_14\.sky130_fd_sc_hd__dfrtp_1_1__RESET_B
*684 ANTENNA_sb_0__0_\.mem_right_track_16\.sky130_fd_sc_hd__dfrtp_1_0__RESET_B
*685 ANTENNA_sb_0__0_\.mem_right_track_16\.sky130_fd_sc_hd__dfrtp_1_1__RESET_B
*686 ANTENNA_sb_0__0_\.mem_right_track_18\.sky130_fd_sc_hd__dfrtp_1_0__RESET_B
*687 ANTENNA_sb_0__0_\.mem_right_track_18\.sky130_fd_sc_hd__dfrtp_1_1__RESET_B
*688 ANTENNA_sb_0__0_\.mem_right_track_2\.sky130_fd_sc_hd__dfrtp_1_0__RESET_B
*689 ANTENNA_sb_0__0_\.mem_right_track_2\.sky130_fd_sc_hd__dfrtp_1_1__RESET_B
*690 ANTENNA_sb_0__0_\.mem_right_track_28\.sky130_fd_sc_hd__dfrtp_1_0__RESET_B
*691 ANTENNA_sb_0__0_\.mem_right_track_28\.sky130_fd_sc_hd__dfrtp_1_1__RESET_B
*692 ANTENNA_sb_0__0_\.mem_right_track_30\.sky130_fd_sc_hd__dfrtp_1_0__RESET_B
*693 ANTENNA_sb_0__0_\.mem_right_track_30\.sky130_fd_sc_hd__dfrtp_1_1__RESET_B
*694 ANTENNA_sb_0__0_\.mem_right_track_32\.sky130_fd_sc_hd__dfrtp_1_0__RESET_B
*695 ANTENNA_sb_0__0_\.mem_right_track_32\.sky130_fd_sc_hd__dfrtp_1_1__RESET_B
*696 ANTENNA_sb_0__0_\.mem_right_track_34\.sky130_fd_sc_hd__dfrtp_1_0__RESET_B
*697 ANTENNA_sb_0__0_\.mem_right_track_34\.sky130_fd_sc_hd__dfrtp_1_1__RESET_B
*698 ANTENNA_sb_0__0_\.mem_right_track_4\.sky130_fd_sc_hd__dfrtp_1_0__D
*699 ANTENNA_sb_0__0_\.mem_right_track_4\.sky130_fd_sc_hd__dfrtp_1_0__RESET_B
*700 ANTENNA_sb_0__0_\.mem_right_track_4\.sky130_fd_sc_hd__dfrtp_1_1__D
*701 ANTENNA_sb_0__0_\.mem_right_track_4\.sky130_fd_sc_hd__dfrtp_1_1__RESET_B
*702 ANTENNA_sb_0__0_\.mem_right_track_44\.sky130_fd_sc_hd__dfrtp_1_0__RESET_B
*703 ANTENNA_sb_0__0_\.mem_right_track_44\.sky130_fd_sc_hd__dfrtp_1_1__RESET_B
*704 ANTENNA_sb_0__0_\.mem_right_track_46\.sky130_fd_sc_hd__dfrtp_1_0__RESET_B
*705 ANTENNA_sb_0__0_\.mem_right_track_46\.sky130_fd_sc_hd__dfrtp_1_1__RESET_B
*706 ANTENNA_sb_0__0_\.mem_right_track_48\.sky130_fd_sc_hd__dfrtp_1_0__RESET_B
*707 ANTENNA_sb_0__0_\.mem_right_track_48\.sky130_fd_sc_hd__dfrtp_1_1__RESET_B
*708 ANTENNA_sb_0__0_\.mem_right_track_50\.sky130_fd_sc_hd__dfrtp_1_0__RESET_B
*709 ANTENNA_sb_0__0_\.mem_right_track_50\.sky130_fd_sc_hd__dfrtp_1_1__RESET_B
*710 ANTENNA_sb_0__0_\.mem_right_track_6\.sky130_fd_sc_hd__dfrtp_1_0__D
*711 ANTENNA_sb_0__0_\.mem_right_track_6\.sky130_fd_sc_hd__dfrtp_1_0__RESET_B
*712 ANTENNA_sb_0__0_\.mem_right_track_6\.sky130_fd_sc_hd__dfrtp_1_1__D
*713 ANTENNA_sb_0__0_\.mem_right_track_6\.sky130_fd_sc_hd__dfrtp_1_1__RESET_B
*714 ANTENNA_sb_0__0_\.mem_right_track_8\.sky130_fd_sc_hd__dfrtp_1_0__D
*715 ANTENNA_sb_0__0_\.mem_right_track_8\.sky130_fd_sc_hd__dfrtp_1_0__RESET_B
*716 ANTENNA_sb_0__0_\.mem_right_track_8\.sky130_fd_sc_hd__dfrtp_1_1__D
*717 ANTENNA_sb_0__0_\.mem_right_track_8\.sky130_fd_sc_hd__dfrtp_1_1__RESET_B
*718 ANTENNA_sb_0__0_\.mem_top_track_0\.sky130_fd_sc_hd__dfrtp_1_0__RESET_B
*719 ANTENNA_sb_0__0_\.mem_top_track_0\.sky130_fd_sc_hd__dfrtp_1_1__RESET_B
*720 ANTENNA_sb_0__0_\.mem_top_track_10\.sky130_fd_sc_hd__dfrtp_1_0__RESET_B
*721 ANTENNA_sb_0__0_\.mem_top_track_10\.sky130_fd_sc_hd__dfrtp_1_1__RESET_B
*722 ANTENNA_sb_0__0_\.mem_top_track_12\.sky130_fd_sc_hd__dfrtp_1_0__RESET_B
*723 ANTENNA_sb_0__0_\.mem_top_track_12\.sky130_fd_sc_hd__dfrtp_1_1__RESET_B
*724 ANTENNA_sb_0__0_\.mem_top_track_14\.sky130_fd_sc_hd__dfrtp_1_0__RESET_B
*725 ANTENNA_sb_0__0_\.mem_top_track_14\.sky130_fd_sc_hd__dfrtp_1_1__RESET_B
*726 ANTENNA_sb_0__0_\.mem_top_track_16\.sky130_fd_sc_hd__dfrtp_1_0__RESET_B
*727 ANTENNA_sb_0__0_\.mem_top_track_16\.sky130_fd_sc_hd__dfrtp_1_1__RESET_B
*728 ANTENNA_sb_0__0_\.mem_top_track_18\.sky130_fd_sc_hd__dfrtp_1_0__RESET_B
*729 ANTENNA_sb_0__0_\.mem_top_track_18\.sky130_fd_sc_hd__dfrtp_1_1__RESET_B
*730 ANTENNA_sb_0__0_\.mem_top_track_2\.sky130_fd_sc_hd__dfrtp_1_0__RESET_B
*731 ANTENNA_sb_0__0_\.mem_top_track_2\.sky130_fd_sc_hd__dfrtp_1_1__RESET_B
*732 ANTENNA_sb_0__0_\.mem_top_track_28\.sky130_fd_sc_hd__dfrtp_1_0__RESET_B
*733 ANTENNA_sb_0__0_\.mem_top_track_28\.sky130_fd_sc_hd__dfrtp_1_1__RESET_B
*734 ANTENNA_sb_0__0_\.mem_top_track_30\.sky130_fd_sc_hd__dfrtp_1_0__RESET_B
*735 ANTENNA_sb_0__0_\.mem_top_track_30\.sky130_fd_sc_hd__dfrtp_1_1__RESET_B
*736 ANTENNA_sb_0__0_\.mem_top_track_32\.sky130_fd_sc_hd__dfrtp_1_0__RESET_B
*737 ANTENNA_sb_0__0_\.mem_top_track_32\.sky130_fd_sc_hd__dfrtp_1_1__RESET_B
*738 ANTENNA_sb_0__0_\.mem_top_track_34\.sky130_fd_sc_hd__dfrtp_1_0__RESET_B
*739 ANTENNA_sb_0__0_\.mem_top_track_34\.sky130_fd_sc_hd__dfrtp_1_1__RESET_B
*740 ANTENNA_sb_0__0_\.mem_top_track_4\.sky130_fd_sc_hd__dfrtp_1_0__RESET_B
*741 ANTENNA_sb_0__0_\.mem_top_track_4\.sky130_fd_sc_hd__dfrtp_1_1__RESET_B
*742 ANTENNA_sb_0__0_\.mem_top_track_44\.sky130_fd_sc_hd__dfrtp_1_0__RESET_B
*743 ANTENNA_sb_0__0_\.mem_top_track_44\.sky130_fd_sc_hd__dfrtp_1_1__RESET_B
*744 ANTENNA_sb_0__0_\.mem_top_track_46\.sky130_fd_sc_hd__dfrtp_1_0__RESET_B
*745 ANTENNA_sb_0__0_\.mem_top_track_46\.sky130_fd_sc_hd__dfrtp_1_1__RESET_B
*746 ANTENNA_sb_0__0_\.mem_top_track_48\.sky130_fd_sc_hd__dfrtp_1_0__RESET_B
*747 ANTENNA_sb_0__0_\.mem_top_track_48\.sky130_fd_sc_hd__dfrtp_1_1__RESET_B
*748 ANTENNA_sb_0__0_\.mem_top_track_50\.sky130_fd_sc_hd__dfrtp_1_0__RESET_B
*749 ANTENNA_sb_0__0_\.mem_top_track_50\.sky130_fd_sc_hd__dfrtp_1_1__RESET_B
*750 ANTENNA_sb_0__0_\.mem_top_track_6\.sky130_fd_sc_hd__dfrtp_1_0__RESET_B
*751 ANTENNA_sb_0__0_\.mem_top_track_6\.sky130_fd_sc_hd__dfrtp_1_1__RESET_B
*752 ANTENNA_sb_0__0_\.mem_top_track_8\.sky130_fd_sc_hd__dfrtp_1_0__RESET_B
*753 ANTENNA_sb_0__0_\.mem_top_track_8\.sky130_fd_sc_hd__dfrtp_1_1__RESET_B
*754 ANTENNA_sb_0__0_\.mux_right_track_0\.mux_l1_in_0__A0
*755 ANTENNA_sb_0__0_\.mux_right_track_0\.mux_l1_in_0__A1
*756 ANTENNA_sb_0__0_\.mux_right_track_0\.mux_l1_in_1__A1
*757 ANTENNA_sb_0__0_\.mux_right_track_10\.mux_l1_in_0__A0
*758 ANTENNA_sb_0__0_\.mux_right_track_10\.mux_l1_in_0__A1
*759 ANTENNA_sb_0__0_\.mux_right_track_10\.mux_l2_in_0__S
*760 ANTENNA_sb_0__0_\.mux_right_track_12\.mux_l1_in_0__A0
*761 ANTENNA_sb_0__0_\.mux_right_track_12\.mux_l2_in_0__A0
*762 ANTENNA_sb_0__0_\.mux_right_track_14\.mux_l1_in_0__A0
*763 ANTENNA_sb_0__0_\.mux_right_track_16\.mux_l1_in_0__A0
*764 ANTENNA_sb_0__0_\.mux_right_track_16\.mux_l1_in_0__A1
*765 ANTENNA_sb_0__0_\.mux_right_track_18\.mux_l1_in_0__A0
*766 ANTENNA_sb_0__0_\.mux_right_track_18\.mux_l1_in_0__A1
*767 ANTENNA_sb_0__0_\.mux_right_track_2\.mux_l1_in_0__A0
*768 ANTENNA_sb_0__0_\.mux_right_track_2\.mux_l1_in_0__S
*769 ANTENNA_sb_0__0_\.mux_right_track_2\.mux_l2_in_0__A0
*770 ANTENNA_sb_0__0_\.mux_right_track_2\.mux_l2_in_0__S
*771 ANTENNA_sb_0__0_\.mux_right_track_2\.sky130_fd_sc_hd__buf_4_0__A
*772 ANTENNA_sb_0__0_\.mux_right_track_28\.mux_l1_in_0__A0
*773 ANTENNA_sb_0__0_\.mux_right_track_28\.mux_l1_in_0__A1
*774 ANTENNA_sb_0__0_\.mux_right_track_30\.mux_l1_in_0__A0
*775 ANTENNA_sb_0__0_\.mux_right_track_30\.mux_l1_in_0__A1
*776 ANTENNA_sb_0__0_\.mux_right_track_32\.mux_l1_in_0__A0
*777 ANTENNA_sb_0__0_\.mux_right_track_34\.mux_l1_in_0__A0
*778 ANTENNA_sb_0__0_\.mux_right_track_34\.mux_l1_in_0__A1
*779 ANTENNA_sb_0__0_\.mux_right_track_4\.mux_l1_in_0__A0
*780 ANTENNA_sb_0__0_\.mux_right_track_4\.mux_l1_in_0__A1
*781 ANTENNA_sb_0__0_\.mux_right_track_4\.mux_l1_in_0__S
*782 ANTENNA_sb_0__0_\.mux_right_track_4\.mux_l2_in_0__A0
*783 ANTENNA_sb_0__0_\.mux_right_track_4\.mux_l2_in_0__S
*784 ANTENNA_sb_0__0_\.mux_right_track_44\.mux_l1_in_0__A0
*785 ANTENNA_sb_0__0_\.mux_right_track_44\.mux_l1_in_0__A1
*786 ANTENNA_sb_0__0_\.mux_right_track_46\.mux_l1_in_0__A0
*787 ANTENNA_sb_0__0_\.mux_right_track_48\.mux_l1_in_0__A0
*788 ANTENNA_sb_0__0_\.mux_right_track_48\.mux_l1_in_0__A1
*789 ANTENNA_sb_0__0_\.mux_right_track_50\.mux_l1_in_0__A0
*790 ANTENNA_sb_0__0_\.mux_right_track_6\.mux_l1_in_0__A0
*791 ANTENNA_sb_0__0_\.mux_right_track_6\.mux_l1_in_0__A1
*792 ANTENNA_sb_0__0_\.mux_right_track_6\.mux_l1_in_0__S
*793 ANTENNA_sb_0__0_\.mux_right_track_6\.mux_l1_in_1__A0
*794 ANTENNA_sb_0__0_\.mux_right_track_6\.mux_l1_in_1__A1
*795 ANTENNA_sb_0__0_\.mux_right_track_6\.mux_l1_in_1__S
*796 ANTENNA_sb_0__0_\.mux_right_track_6\.mux_l2_in_0__S
*797 ANTENNA_sb_0__0_\.mux_right_track_6\.sky130_fd_sc_hd__buf_4_0__A
*798 ANTENNA_sb_0__0_\.mux_right_track_8\.mux_l1_in_0__A0
*799 ANTENNA_sb_0__0_\.mux_right_track_8\.mux_l1_in_0__A1
*800 ANTENNA_sb_0__0_\.mux_right_track_8\.mux_l1_in_0__S
*801 ANTENNA_sb_0__0_\.mux_right_track_8\.mux_l2_in_0__A0
*802 ANTENNA_sb_0__0_\.mux_right_track_8\.mux_l2_in_0__S
*803 ANTENNA_sb_0__0_\.mux_top_track_0\.mux_l1_in_0__A0
*804 ANTENNA_sb_0__0_\.mux_top_track_0\.mux_l1_in_0__A1
*805 ANTENNA_sb_0__0_\.mux_top_track_0\.mux_l1_in_0__S
*806 ANTENNA_sb_0__0_\.mux_top_track_0\.mux_l1_in_1__A0
*807 ANTENNA_sb_0__0_\.mux_top_track_0\.mux_l1_in_1__S
*808 ANTENNA_sb_0__0_\.mux_top_track_10\.mux_l1_in_0__A0
*809 ANTENNA_sb_0__0_\.mux_top_track_10\.mux_l1_in_0__A1
*810 ANTENNA_sb_0__0_\.mux_top_track_12\.mux_l1_in_0__A0
*811 ANTENNA_sb_0__0_\.mux_top_track_12\.mux_l1_in_0__A1
*812 ANTENNA_sb_0__0_\.mux_top_track_14\.mux_l1_in_0__A1
*813 ANTENNA_sb_0__0_\.mux_top_track_16\.mux_l1_in_0__A1
*814 ANTENNA_sb_0__0_\.mux_top_track_18\.mux_l1_in_0__A1
*815 ANTENNA_sb_0__0_\.mux_top_track_2\.mux_l1_in_0__A1
*816 ANTENNA_sb_0__0_\.mux_top_track_28\.mux_l1_in_0__A1
*817 ANTENNA_sb_0__0_\.mux_top_track_30\.mux_l1_in_0__A1
*818 ANTENNA_sb_0__0_\.mux_top_track_32\.mux_l1_in_0__A1
*819 ANTENNA_sb_0__0_\.mux_top_track_34\.mux_l1_in_0__A1
*820 ANTENNA_sb_0__0_\.mux_top_track_4\.mux_l1_in_0__A1
*821 ANTENNA_sb_0__0_\.mux_top_track_4\.mux_l2_in_0__S
*822 ANTENNA_sb_0__0_\.mux_top_track_4\.sky130_fd_sc_hd__buf_4_0__A
*823 ANTENNA_sb_0__0_\.mux_top_track_44\.mux_l1_in_0__A1
*824 ANTENNA_sb_0__0_\.mux_top_track_46\.mux_l1_in_0__A1
*825 ANTENNA_sb_0__0_\.mux_top_track_48\.mux_l1_in_0__A1
*826 ANTENNA_sb_0__0_\.mux_top_track_50\.mux_l1_in_0__A1
*827 ANTENNA_sb_0__0_\.mux_top_track_6\.mux_l1_in_0__A0
*828 ANTENNA_sb_0__0_\.mux_top_track_6\.mux_l1_in_0__A1
*829 ANTENNA_sb_0__0_\.mux_top_track_6\.mux_l1_in_0__S
*830 ANTENNA_sb_0__0_\.mux_top_track_6\.mux_l1_in_1__A0
*831 ANTENNA_sb_0__0_\.mux_top_track_6\.mux_l1_in_1__S
*832 ANTENNA_sb_0__0_\.mux_top_track_6\.sky130_fd_sc_hd__buf_4_0__A
*833 ANTENNA_sb_0__0_\.mux_top_track_8\.mux_l1_in_0__A1
*834 ANTENNA_sb_0__0_\.mux_top_track_8\.mux_l2_in_0__A0
*835 ANTENNA_sb_0__0_\.mux_top_track_8\.sky130_fd_sc_hd__buf_4_0__A
*836 FILLER_0_109
*837 FILLER_0_113
*838 FILLER_0_125
*839 FILLER_0_137
*840 FILLER_0_141
*841 FILLER_0_15
*842 FILLER_0_153
*843 FILLER_0_165
*844 FILLER_0_169
*845 FILLER_0_181
*846 FILLER_0_193
*847 FILLER_0_197
*848 FILLER_0_205
*849 FILLER_0_222
*850 FILLER_0_225
*851 FILLER_0_233
*852 FILLER_0_250
*853 FILLER_0_253
*854 FILLER_0_258
*855 FILLER_0_27
*856 FILLER_0_29
*857 FILLER_0_3
*858 FILLER_0_41
*859 FILLER_0_53
*860 FILLER_0_57
*861 FILLER_0_61
*862 FILLER_0_65
*863 FILLER_0_69
*864 FILLER_0_81
*865 FILLER_0_85
*866 FILLER_0_97
*867 FILLER_10_109
*868 FILLER_10_121
*869 FILLER_10_133
*870 FILLER_10_139
*871 FILLER_10_141
*872 FILLER_10_15
*873 FILLER_10_153
*874 FILLER_10_165
*875 FILLER_10_187
*876 FILLER_10_194
*877 FILLER_10_197
*878 FILLER_10_202
*879 FILLER_10_209