*SPEF "ieee 1481-1999"
*DESIGN "bottom_left_tile"
*DATE "11:11:11 Fri 11 11, 1111"
*VENDOR "OpenRCX"
*PROGRAM "Parallel Extraction"
*VERSION "1.0"
*DESIGN_FLOW "NAME_SCOPE LOCAL" "PIN_CAP NONE"
*DIVIDER /
*DELIMITER :
*BUS_DELIMITER []
*T_UNIT 1 NS
*C_UNIT 1 PF
*R_UNIT 1 OHM
*L_UNIT 1 HENRY

*NAME_MAP
*3 ccff_head
*4 ccff_tail
*5 chanx_right_in[0]
*6 chanx_right_in[10]
*7 chanx_right_in[11]
*8 chanx_right_in[12]
*9 chanx_right_in[13]
*10 chanx_right_in[14]
*11 chanx_right_in[15]
*12 chanx_right_in[16]
*13 chanx_right_in[17]
*14 chanx_right_in[18]
*15 chanx_right_in[19]
*16 chanx_right_in[1]
*17 chanx_right_in[20]
*18 chanx_right_in[21]
*19 chanx_right_in[22]
*20 chanx_right_in[23]
*21 chanx_right_in[24]
*22 chanx_right_in[25]
*23 chanx_right_in[26]
*24 chanx_right_in[27]
*25 chanx_right_in[28]
*26 chanx_right_in[29]
*27 chanx_right_in[2]
*28 chanx_right_in[3]
*29 chanx_right_in[4]
*30 chanx_right_in[5]
*31 chanx_right_in[6]
*32 chanx_right_in[7]
*33 chanx_right_in[8]
*34 chanx_right_in[9]
*35 chanx_right_out[0]
*36 chanx_right_out[10]
*37 chanx_right_out[11]
*38 chanx_right_out[12]
*39 chanx_right_out[13]
*40 chanx_right_out[14]
*41 chanx_right_out[15]
*42 chanx_right_out[16]
*43 chanx_right_out[17]
*44 chanx_right_out[18]
*45 chanx_right_out[19]
*46 chanx_right_out[1]
*47 chanx_right_out[20]
*48 chanx_right_out[21]
*49 chanx_right_out[22]
*50 chanx_right_out[23]
*51 chanx_right_out[24]
*52 chanx_right_out[25]
*53 chanx_right_out[26]
*54 chanx_right_out[27]
*55 chanx_right_out[28]
*56 chanx_right_out[29]
*57 chanx_right_out[2]
*58 chanx_right_out[3]
*59 chanx_right_out[4]
*60 chanx_right_out[5]
*61 chanx_right_out[6]
*62 chanx_right_out[7]
*63 chanx_right_out[8]
*64 chanx_right_out[9]
*65 chany_top_in[0]
*66 chany_top_in[10]
*67 chany_top_in[11]
*68 chany_top_in[12]
*69 chany_top_in[13]
*70 chany_top_in[14]
*71 chany_top_in[15]
*72 chany_top_in[16]
*73 chany_top_in[17]
*74 chany_top_in[18]
*75 chany_top_in[19]
*76 chany_top_in[1]
*77 chany_top_in[20]
*78 chany_top_in[21]
*79 chany_top_in[22]
*80 chany_top_in[23]
*81 chany_top_in[24]
*82 chany_top_in[25]
*83 chany_top_in[26]
*84 chany_top_in[27]
*85 chany_top_in[28]
*86 chany_top_in[29]
*87 chany_top_in[2]
*88 chany_top_in[3]
*89 chany_top_in[4]
*90 chany_top_in[5]
*91 chany_top_in[6]
*92 chany_top_in[7]
*93 chany_top_in[8]
*94 chany_top_in[9]
*95 chany_top_out[0]
*96 chany_top_out[10]
*97 chany_top_out[11]
*98 chany_top_out[12]
*99 chany_top_out[13]
*100 chany_top_out[14]
*101 chany_top_out[15]
*102 chany_top_out[16]
*103 chany_top_out[17]
*104 chany_top_out[18]
*105 chany_top_out[19]
*106 chany_top_out[1]
*107 chany_top_out[20]
*108 chany_top_out[21]
*109 chany_top_out[22]
*110 chany_top_out[23]
*111 chany_top_out[24]
*112 chany_top_out[25]
*113 chany_top_out[26]
*114 chany_top_out[27]
*115 chany_top_out[28]
*116 chany_top_out[29]
*117 chany_top_out[2]
*118 chany_top_out[3]
*119 chany_top_out[4]
*120 chany_top_out[5]
*121 chany_top_out[6]
*122 chany_top_out[7]
*123 chany_top_out[8]
*124 chany_top_out[9]
*125 prog_clk
*126 prog_reset_top_in
*127 reset_top_in
*128 right_bottom_grid_top_width_0_height_0_subtile_0__pin_inpad_0_
*129 right_bottom_grid_top_width_0_height_0_subtile_1__pin_inpad_0_
*130 right_bottom_grid_top_width_0_height_0_subtile_2__pin_inpad_0_
*131 right_bottom_grid_top_width_0_height_0_subtile_3__pin_inpad_0_
*132 test_enable_top_in
*133 top_left_grid_right_width_0_height_0_subtile_0__pin_inpad_0_
*134 top_left_grid_right_width_0_height_0_subtile_1__pin_inpad_0_
*135 top_left_grid_right_width_0_height_0_subtile_2__pin_inpad_0_
*136 top_left_grid_right_width_0_height_0_subtile_3__pin_inpad_0_
*137 clknet_0_prog_clk
*138 clknet_3_0__leaf_prog_clk
*139 clknet_3_1__leaf_prog_clk
*140 clknet_3_2__leaf_prog_clk
*141 clknet_3_3__leaf_prog_clk
*142 clknet_3_4__leaf_prog_clk
*143 clknet_3_5__leaf_prog_clk
*144 clknet_3_6__leaf_prog_clk
*145 clknet_3_7__leaf_prog_clk
*146 net1
*147 net10
*148 net100
*149 net101
*150 net102
*151 net103
*152 net104
*153 net105
*154 net106
*155 net107
*156 net108
*157 net109
*158 net11
*159 net110
*160 net111
*161 net112
*162 net113
*163 net114
*164 net115
*165 net116
*166 net117
*167 net118
*168 net119
*169 net12
*170 net120
*171 net121
*172 net122
*173 net123
*174 net124
*175 net125
*176 net126
*177 net127
*178 net128
*179 net129
*180 net13
*181 net130
*182 net131
*183 net132
*184 net133
*185 net134
*186 net135
*187 net136
*188 net137
*189 net138
*190 net139
*191 net14
*192 net140
*193 net141
*194 net142
*195 net143
*196 net144
*197 net145
*198 net146
*199 net147
*200 net148
*201 net149
*202 net15
*203 net150
*204 net151
*205 net152
*206 net153
*207 net154
*208 net155
*209 net156
*210 net157
*211 net158
*212 net159
*213 net16
*214 net160
*215 net161
*216 net162
*217 net163
*218 net164
*219 net165
*220 net166
*221 net167
*222 net17
*223 net18
*224 net19
*225 net2
*226 net20
*227 net21
*228 net22
*229 net23
*230 net24
*231 net25
*232 net26
*233 net27
*234 net28
*235 net29
*236 net3
*237 net30
*238 net31
*239 net32
*240 net33
*241 net34
*242 net35
*243 net36
*244 net37
*245 net38
*246 net39
*247 net4
*248 net40
*249 net41
*250 net42
*251 net43
*252 net44
*253 net45
*254 net46
*255 net47
*256 net48
*257 net49
*258 net5
*259 net50
*260 net51
*261 net52
*262 net53
*263 net54
*264 net55
*265 net56
*266 net57
*267 net58
*268 net59
*269 net6
*270 net60
*271 net61
*272 net62
*273 net63
*274 net64
*275 net65
*276 net66
*277 net67
*278 net68
*279 net69
*280 net7
*281 net70
*282 net71
*283 net72
*284 net73
*285 net74
*286 net75
*287 net76
*288 net77
*289 net78
*290 net79
*291 net8
*292 net80
*293 net81
*294 net82
*295 net83
*296 net84
*297 net85
*298 net86
*299 net87
*300 net88
*301 net89
*302 net9
*303 net90
*304 net91
*305 net92
*306 net93
*307 net94
*308 net95
*309 net96
*310 net97
*311 net98
*312 net99
*313 sb_0__0_\.mem_right_track_0\.ccff_head
*314 sb_0__0_\.mem_right_track_0\.ccff_tail
*315 sb_0__0_\.mem_right_track_0\.mem_out\[0\]
*316 sb_0__0_\.mem_right_track_10\.ccff_head
*317 sb_0__0_\.mem_right_track_10\.ccff_tail
*318 sb_0__0_\.mem_right_track_10\.mem_out\[0\]
*319 sb_0__0_\.mem_right_track_12\.ccff_tail
*320 sb_0__0_\.mem_right_track_12\.mem_out\[0\]
*321 sb_0__0_\.mem_right_track_14\.ccff_tail
*322 sb_0__0_\.mem_right_track_14\.mem_out\[0\]
*323 sb_0__0_\.mem_right_track_16\.ccff_tail
*324 sb_0__0_\.mem_right_track_16\.mem_out\[0\]
*325 sb_0__0_\.mem_right_track_18\.ccff_tail
*326 sb_0__0_\.mem_right_track_18\.mem_out\[0\]
*327 sb_0__0_\.mem_right_track_2\.ccff_tail
*328 sb_0__0_\.mem_right_track_2\.mem_out\[0\]
*329 sb_0__0_\.mem_right_track_28\.ccff_tail
*330 sb_0__0_\.mem_right_track_28\.mem_out\[0\]
*331 sb_0__0_\.mem_right_track_30\.ccff_tail
*332 sb_0__0_\.mem_right_track_30\.mem_out\[0\]
*333 sb_0__0_\.mem_right_track_32\.ccff_tail
*334 sb_0__0_\.mem_right_track_32\.mem_out\[0\]
*335 sb_0__0_\.mem_right_track_34\.ccff_tail
*336 sb_0__0_\.mem_right_track_34\.mem_out\[0\]
*337 sb_0__0_\.mem_right_track_4\.ccff_tail
*338 sb_0__0_\.mem_right_track_4\.mem_out\[0\]
*339 sb_0__0_\.mem_right_track_44\.ccff_tail
*340 sb_0__0_\.mem_right_track_44\.mem_out\[0\]
*341 sb_0__0_\.mem_right_track_46\.ccff_tail
*342 sb_0__0_\.mem_right_track_46\.mem_out\[0\]
*343 sb_0__0_\.mem_right_track_48\.ccff_tail
*344 sb_0__0_\.mem_right_track_48\.mem_out\[0\]
*345 sb_0__0_\.mem_right_track_50\.mem_out\[0\]
*346 sb_0__0_\.mem_right_track_6\.ccff_tail
*347 sb_0__0_\.mem_right_track_6\.mem_out\[0\]
*348 sb_0__0_\.mem_right_track_8\.mem_out\[0\]
*349 sb_0__0_\.mem_top_track_0\.ccff_tail
*350 sb_0__0_\.mem_top_track_0\.mem_out\[0\]
*351 sb_0__0_\.mem_top_track_10\.ccff_head
*352 sb_0__0_\.mem_top_track_10\.ccff_tail
*353 sb_0__0_\.mem_top_track_10\.mem_out\[0\]
*354 sb_0__0_\.mem_top_track_12\.ccff_tail
*355 sb_0__0_\.mem_top_track_12\.mem_out\[0\]
*356 sb_0__0_\.mem_top_track_14\.ccff_tail
*357 sb_0__0_\.mem_top_track_14\.mem_out\[0\]
*358 sb_0__0_\.mem_top_track_16\.ccff_tail
*359 sb_0__0_\.mem_top_track_16\.mem_out\[0\]
*360 sb_0__0_\.mem_top_track_18\.ccff_tail
*361 sb_0__0_\.mem_top_track_18\.mem_out\[0\]
*362 sb_0__0_\.mem_top_track_2\.ccff_tail
*363 sb_0__0_\.mem_top_track_2\.mem_out\[0\]
*364 sb_0__0_\.mem_top_track_28\.ccff_tail
*365 sb_0__0_\.mem_top_track_28\.mem_out\[0\]
*366 sb_0__0_\.mem_top_track_30\.ccff_tail
*367 sb_0__0_\.mem_top_track_30\.mem_out\[0\]
*368 sb_0__0_\.mem_top_track_32\.ccff_tail
*369 sb_0__0_\.mem_top_track_32\.mem_out\[0\]
*370 sb_0__0_\.mem_top_track_34\.ccff_tail
*371 sb_0__0_\.mem_top_track_34\.mem_out\[0\]
*372 sb_0__0_\.mem_top_track_4\.ccff_tail
*373 sb_0__0_\.mem_top_track_4\.mem_out\[0\]
*374 sb_0__0_\.mem_top_track_44\.ccff_tail
*375 sb_0__0_\.mem_top_track_44\.mem_out\[0\]
*376 sb_0__0_\.mem_top_track_46\.ccff_tail
*377 sb_0__0_\.mem_top_track_46\.mem_out\[0\]
*378 sb_0__0_\.mem_top_track_48\.ccff_tail
*379 sb_0__0_\.mem_top_track_48\.mem_out\[0\]
*380 sb_0__0_\.mem_top_track_50\.mem_out\[0\]
*381 sb_0__0_\.mem_top_track_6\.ccff_tail
*382 sb_0__0_\.mem_top_track_6\.mem_out\[0\]
*383 sb_0__0_\.mem_top_track_8\.mem_out\[0\]
*384 sb_0__0_\.mux_right_track_0\.out
*385 sb_0__0_\.mux_right_track_0\.sky130_fd_sc_hd__mux2_1_0_X
*386 sb_0__0_\.mux_right_track_0\.sky130_fd_sc_hd__mux2_1_1_X
*387 sb_0__0_\.mux_right_track_0\.sky130_fd_sc_hd__mux2_1_2_X
*388 sb_0__0_\.mux_right_track_10\.out
*389 sb_0__0_\.mux_right_track_10\.sky130_fd_sc_hd__mux2_1_0_X
*390 sb_0__0_\.mux_right_track_10\.sky130_fd_sc_hd__mux2_1_1_X
*391 sb_0__0_\.mux_right_track_12\.out
*392 sb_0__0_\.mux_right_track_12\.sky130_fd_sc_hd__mux2_1_0_X
*393 sb_0__0_\.mux_right_track_12\.sky130_fd_sc_hd__mux2_1_1_X
*394 sb_0__0_\.mux_right_track_14\.out
*395 sb_0__0_\.mux_right_track_14\.sky130_fd_sc_hd__mux2_1_0_X
*396 sb_0__0_\.mux_right_track_14\.sky130_fd_sc_hd__mux2_1_1_X
*397 sb_0__0_\.mux_right_track_16\.out
*398 sb_0__0_\.mux_right_track_16\.sky130_fd_sc_hd__mux2_1_0_X
*399 sb_0__0_\.mux_right_track_16\.sky130_fd_sc_hd__mux2_1_1_X
*400 sb_0__0_\.mux_right_track_18\.out
*401 sb_0__0_\.mux_right_track_18\.sky130_fd_sc_hd__mux2_1_0_X
*402 sb_0__0_\.mux_right_track_18\.sky130_fd_sc_hd__mux2_1_1_X
*403 sb_0__0_\.mux_right_track_2\.out
*404 sb_0__0_\.mux_right_track_2\.sky130_fd_sc_hd__mux2_1_0_X
*405 sb_0__0_\.mux_right_track_2\.sky130_fd_sc_hd__mux2_1_1_X
*406 sb_0__0_\.mux_right_track_28\.out
*407 sb_0__0_\.mux_right_track_28\.sky130_fd_sc_hd__mux2_1_0_X
*408 sb_0__0_\.mux_right_track_28\.sky130_fd_sc_hd__mux2_1_1_X
*409 sb_0__0_\.mux_right_track_30\.out
*410 sb_0__0_\.mux_right_track_30\.sky130_fd_sc_hd__mux2_1_0_X
*411 sb_0__0_\.mux_right_track_30\.sky130_fd_sc_hd__mux2_1_1_X
*412 sb_0__0_\.mux_right_track_32\.out
*413 sb_0__0_\.mux_right_track_32\.sky130_fd_sc_hd__mux2_1_0_X
*414 sb_0__0_\.mux_right_track_32\.sky130_fd_sc_hd__mux2_1_1_X
*415 sb_0__0_\.mux_right_track_34\.out
*416 sb_0__0_\.mux_right_track_34\.sky130_fd_sc_hd__mux2_1_0_X
*417 sb_0__0_\.mux_right_track_34\.sky130_fd_sc_hd__mux2_1_1_X
*418 sb_0__0_\.mux_right_track_4\.out
*419 sb_0__0_\.mux_right_track_4\.sky130_fd_sc_hd__mux2_1_0_X
*420 sb_0__0_\.mux_right_track_4\.sky130_fd_sc_hd__mux2_1_1_X
*421 sb_0__0_\.mux_right_track_44\.out
*422 sb_0__0_\.mux_right_track_44\.sky130_fd_sc_hd__mux2_1_0_X
*423 sb_0__0_\.mux_right_track_44\.sky130_fd_sc_hd__mux2_1_1_X
*424 sb_0__0_\.mux_right_track_46\.out
*425 sb_0__0_\.mux_right_track_46\.sky130_fd_sc_hd__mux2_1_0_X
*426 sb_0__0_\.mux_right_track_46\.sky130_fd_sc_hd__mux2_1_1_X
*427 sb_0__0_\.mux_right_track_48\.out
*428 sb_0__0_\.mux_right_track_48\.sky130_fd_sc_hd__mux2_1_0_X
*429 sb_0__0_\.mux_right_track_48\.sky130_fd_sc_hd__mux2_1_1_X
*430 sb_0__0_\.mux_right_track_50\.out
*431 sb_0__0_\.mux_right_track_50\.sky130_fd_sc_hd__mux2_1_0_X
*432 sb_0__0_\.mux_right_track_50\.sky130_fd_sc_hd__mux2_1_1_X
*433 sb_0__0_\.mux_right_track_6\.out
*434 sb_0__0_\.mux_right_track_6\.sky130_fd_sc_hd__mux2_1_0_X
*435 sb_0__0_\.mux_right_track_6\.sky130_fd_sc_hd__mux2_1_1_X
*436 sb_0__0_\.mux_right_track_6\.sky130_fd_sc_hd__mux2_1_2_X
*437 sb_0__0_\.mux_right_track_8\.out
*438 sb_0__0_\.mux_right_track_8\.sky130_fd_sc_hd__mux2_1_0_X
*439 sb_0__0_\.mux_right_track_8\.sky130_fd_sc_hd__mux2_1_1_X
*440 sb_0__0_\.mux_top_track_0\.out
*441 sb_0__0_\.mux_top_track_0\.sky130_fd_sc_hd__mux2_1_0_X
*442 sb_0__0_\.mux_top_track_0\.sky130_fd_sc_hd__mux2_1_1_X
*443 sb_0__0_\.mux_top_track_0\.sky130_fd_sc_hd__mux2_1_2_X
*444 sb_0__0_\.mux_top_track_10\.out
*445 sb_0__0_\.mux_top_track_10\.sky130_fd_sc_hd__mux2_1_0_X
*446 sb_0__0_\.mux_top_track_10\.sky130_fd_sc_hd__mux2_1_1_X
*447 sb_0__0_\.mux_top_track_12\.out
*448 sb_0__0_\.mux_top_track_12\.sky130_fd_sc_hd__mux2_1_0_X
*449 sb_0__0_\.mux_top_track_12\.sky130_fd_sc_hd__mux2_1_1_X
*450 sb_0__0_\.mux_top_track_14\.out
*451 sb_0__0_\.mux_top_track_14\.sky130_fd_sc_hd__mux2_1_0_X
*452 sb_0__0_\.mux_top_track_14\.sky130_fd_sc_hd__mux2_1_1_X
*453 sb_0__0_\.mux_top_track_16\.out
*454 sb_0__0_\.mux_top_track_16\.sky130_fd_sc_hd__mux2_1_0_X
*455 sb_0__0_\.mux_top_track_16\.sky130_fd_sc_hd__mux2_1_1_X
*456 sb_0__0_\.mux_top_track_18\.out
*457 sb_0__0_\.mux_top_track_18\.sky130_fd_sc_hd__mux2_1_0_X
*458 sb_0__0_\.mux_top_track_18\.sky130_fd_sc_hd__mux2_1_1_X
*459 sb_0__0_\.mux_top_track_2\.out
*460 sb_0__0_\.mux_top_track_2\.sky130_fd_sc_hd__mux2_1_0_X
*461 sb_0__0_\.mux_top_track_2\.sky130_fd_sc_hd__mux2_1_1_X
*462 sb_0__0_\.mux_top_track_28\.out
*463 sb_0__0_\.mux_top_track_28\.sky130_fd_sc_hd__mux2_1_0_X
*464 sb_0__0_\.mux_top_track_28\.sky130_fd_sc_hd__mux2_1_1_X
*465 sb_0__0_\.mux_top_track_30\.out
*466 sb_0__0_\.mux_top_track_30\.sky130_fd_sc_hd__mux2_1_0_X
*467 sb_0__0_\.mux_top_track_30\.sky130_fd_sc_hd__mux2_1_1_X
*468 sb_0__0_\.mux_top_track_32\.out
*469 sb_0__0_\.mux_top_track_32\.sky130_fd_sc_hd__mux2_1_0_X
*470 sb_0__0_\.mux_top_track_32\.sky130_fd_sc_hd__mux2_1_1_X
*471 sb_0__0_\.mux_top_track_34\.out
*472 sb_0__0_\.mux_top_track_34\.sky130_fd_sc_hd__mux2_1_0_X
*473 sb_0__0_\.mux_top_track_34\.sky130_fd_sc_hd__mux2_1_1_X
*474 sb_0__0_\.mux_top_track_4\.out
*475 sb_0__0_\.mux_top_track_4\.sky130_fd_sc_hd__mux2_1_0_X
*476 sb_0__0_\.mux_top_track_4\.sky130_fd_sc_hd__mux2_1_1_X
*477 sb_0__0_\.mux_top_track_44\.out
*478 sb_0__0_\.mux_top_track_44\.sky130_fd_sc_hd__mux2_1_0_X
*479 sb_0__0_\.mux_top_track_44\.sky130_fd_sc_hd__mux2_1_1_X
*480 sb_0__0_\.mux_top_track_46\.out
*481 sb_0__0_\.mux_top_track_46\.sky130_fd_sc_hd__mux2_1_0_X
*482 sb_0__0_\.mux_top_track_46\.sky130_fd_sc_hd__mux2_1_1_X
*483 sb_0__0_\.mux_top_track_48\.out
*484 sb_0__0_\.mux_top_track_48\.sky130_fd_sc_hd__mux2_1_0_X
*485 sb_0__0_\.mux_top_track_48\.sky130_fd_sc_hd__mux2_1_1_X
*486 sb_0__0_\.mux_top_track_50\.out
*487 sb_0__0_\.mux_top_track_50\.sky130_fd_sc_hd__mux2_1_0_X
*488 sb_0__0_\.mux_top_track_50\.sky130_fd_sc_hd__mux2_1_1_X
*489 sb_0__0_\.mux_top_track_6\.out
*490 sb_0__0_\.mux_top_track_6\.sky130_fd_sc_hd__mux2_1_0_X
*491 sb_0__0_\.mux_top_track_6\.sky130_fd_sc_hd__mux2_1_1_X
*492 sb_0__0_\.mux_top_track_6\.sky130_fd_sc_hd__mux2_1_2_X
*493 sb_0__0_\.mux_top_track_8\.out
*494 sb_0__0_\.mux_top_track_8\.sky130_fd_sc_hd__mux2_1_0_X
*495 sb_0__0_\.mux_top_track_8\.sky130_fd_sc_hd__mux2_1_1_X
*496 ANTENNA_1
*497 ANTENNA_10
*498 ANTENNA_2
*499 ANTENNA_3
*500 ANTENNA_4
*501 ANTENNA_5
*502 ANTENNA_6
*503 ANTENNA_7
*504 ANTENNA_8
*505 ANTENNA_9
*506 FILLER_0_109
*507 FILLER_0_113
*508 FILLER_0_125
*509 FILLER_0_137
*510 FILLER_0_141
*511 FILLER_0_15
*512 FILLER_0_153
*513 FILLER_0_165
*514 FILLER_0_169
*515 FILLER_0_181
*516 FILLER_0_193
*517 FILLER_0_197
*518 FILLER_0_209
*519 FILLER_0_221
*520 FILLER_0_225
*521 FILLER_0_237
*522 FILLER_0_249
*523 FILLER_0_253
*524 FILLER_0_265
*525 FILLER_0_27
*526 FILLER_0_277
*527 FILLER_0_281
*528 FILLER_0_29
*529 FILLER_0_293
*530 FILLER_0_3
*531 FILLER_0_305
*532 FILLER_0_309
*533 FILLER_0_321
*534 FILLER_0_333
*535 FILLER_0_337
*536 FILLER_0_349
*537 FILLER_0_361
*538 FILLER_0_365
*539 FILLER_0_377
*540 FILLER_0_389
*541 FILLER_0_393
*542 FILLER_0_405
*543 FILLER_0_41
*544 FILLER_0_417
*545 FILLER_0_421
*546 FILLER_0_433
*547 FILLER_0_445
*548 FILLER_0_449
*549 FILLER_0_461
*550 FILLER_0_473
*551 FILLER_0_477
*552 FILLER_0_489
*553 FILLER_0_501
*554 FILLER_0_505
*555 FILLER_0_525
*556 FILLER_0_53
*557 FILLER_0_57
*558 FILLER_0_69
*559 FILLER_0_81
*560 FILLER_0_85
*561 FILLER_0_97
*562 FILLER_10_109
*563 FILLER_10_121
*564 FILLER_10_133
*565 FILLER_10_139
*566 FILLER_10_141
*567 FILLER_10_15
*568 FILLER_10_153
*569 FILLER_10_165
*570 FILLER_10_177
*571 FILLER_10_189
*572 FILLER_10_195
*573 FILLER_10_197
*574 FILLER_10_209
*575 FILLER_10_221
*576 FILLER_10_233
*577 FILLER_10_245
*578 FILLER_10_251
*579 FILLER_10_253
*580 FILLER_10_265
*581 FILLER_10_27
*582 FILLER_10_277
*583 FILLER_10_289
*584 FILLER_10_29
*585 FILLER_10_3
*586 FILLER_10_301
*587 FILLER_10_307
*588 FILLER_10_309
*589 FILLER_10_321
*590 FILLER_10_333
*591 FILLER_10_345
*592 FILLER_10_357
*593 FILLER_10_363
*594 FILLER_10_365
*595 FILLER_10_377
*596 FILLER_10_389
*597 FILLER_10_401
*598 FILLER_10_41
*599 FILLER_10_413
*600 FILLER_10_419
*601 FILLER_10_421
*602 FILLER_10_433
*603 FILLER_10_445
*604 FILLER_10_457
*605 FILLER_10_469
*606 FILLER_10_475
*607 FILLER_10_477
*608 FILLER_10_489
*609 FILLER_10_501
*610 FILLER_10_513
*611 FILLER_10_525
*612 FILLER_10_53
*613 FILLER_10_65
*614 FILLER_10_77
*615 FILLER_10_83
*616 FILLER_10_85
*617 FILLER_10_97
*618 FILLER_11_105
*619 FILLER_11_111
*620 FILLER_11_113
*621 FILLER_11_125
*622 FILLER_11_137
*623 FILLER_11_149
*624 FILLER_11_15
*625 FILLER_11_161
*626 FILLER_11_167
*627 FILLER_11_169
*628 FILLER_11_181
*629 FILLER_11_193
*630 FILLER_11_205
*631 FILLER_11_217
*632 FILLER_11_223
*633 FILLER_11_225
*634 FILLER_11_237
*635 FILLER_11_249
*636 FILLER_11_261
*637 FILLER_11_27
*638 FILLER_11_273
*639 FILLER_11_279
*640 FILLER_11_281
*641 FILLER_11_293
*642 FILLER_11_3
*643 FILLER_11_305
*644 FILLER_11_317
*645 FILLER_11_329
*646 FILLER_11_335
*647 FILLER_11_337
*648 FILLER_11_349
*649 FILLER_11_361
*650 FILLER_11_373
*651 FILLER_11_385
*652 FILLER_11_39
*653 FILLER_11_391
*654 FILLER_11_393
*655 FILLER_11_405
*656 FILLER_11_417
*657 FILLER_11_429
*658 FILLER_11_441
*659 FILLER_11_447
*660 FILLER_11_449
*661 FILLER_11_461
*662 FILLER_11_473
*663 FILLER_11_485
*664 FILLER_11_497
*665 FILLER_11_503
*666 FILLER_11_505
*667 FILLER_11_51
*668 FILLER_11_525
*669 FILLER_11_55
*670 FILLER_11_57
*671 FILLER_11_69
*672 FILLER_11_81
*673 FILLER_11_93
*674 FILLER_12_109
*675 FILLER_12_121
*676 FILLER_12_133
*677 FILLER_12_139
*678 FILLER_12_141
*679 FILLER_12_15
*680 FILLER_12_153
*681 FILLER_12_165
*682 FILLER_12_177
*683 FILLER_12_189
*684 FILLER_12_195
*685 FILLER_12_197
*686 FILLER_12_209
*687 FILLER_12_221
*688 FILLER_12_233
*689 FILLER_12_245
*690 FILLER_12_251
*691 FILLER_12_253
*692 FILLER_12_265
*693 FILLER_12_27
*694 FILLER_12_277
*695 FILLER_12_289
*696 FILLER_12_29
*697 FILLER_12_3
*698 FILLER_12_301
*699 FILLER_12_307
*700 FILLER_12_309
*701 FILLER_12_321
*702 FILLER_12_333
*703 FILLER_12_345
*704 FILLER_12_357
*705 FILLER_12_363
*706 FILLER_12_365
*707 FILLER_12_377
*708 FILLER_12_389
*709 FILLER_12_401
*710 FILLER_12_41
*711 FILLER_12_413
*712 FILLER_12_419
*713 FILLER_12_421
*714 FILLER_12_433
*715 FILLER_12_445
*716 FILLER_12_457
*717 FILLER_12_469
*718 FILLER_12_475
*719 FILLER_12_477
*720 FILLER_12_489
*721 FILLER_12_501
*722 FILLER_12_525
*723 FILLER_12_53
*724 FILLER_12_65
*725 FILLER_12_77
*726 FILLER_12_83
*727 FILLER_12_85
*728 FILLER_12_97
*729 FILLER_13_105
*730 FILLER_13_111
*731 FILLER_13_113
*732 FILLER_13_125
*733 FILLER_13_137
*734 FILLER_13_149
*735 FILLER_13_15
*736 FILLER_13_161
*737 FILLER_13_167
*738 FILLER_13_169
*739 FILLER_13_181
*740 FILLER_13_193
*741 FILLER_13_205
*742 FILLER_13_217
*743 FILLER_13_223
*744 FILLER_13_225
*745 FILLER_13_237
*746 FILLER_13_249
*747 FILLER_13_261
*748 FILLER_13_27
*749 FILLER_13_273
*750 FILLER_13_279
*751 FILLER_13_281
*752 FILLER_13_293
*753 FILLER_13_3
*754 FILLER_13_305
*755 FILLER_13_317
*756 FILLER_13_329
*757 FILLER_13_335
*758 FILLER_13_337
*759 FILLER_13_349
*760 FILLER_13_361
*761 FILLER_13_373
*762 FILLER_13_385
*763 FILLER_13_39
*764 FILLER_13_391
*765 FILLER_13_393
*766 FILLER_13_405
*767 FILLER_13_417
*768 FILLER_13_429
*769 FILLER_13_441
*770 FILLER_13_447
*771 FILLER_13_449
*772 FILLER_13_461
*773 FILLER_13_473
*774 FILLER_13_485
*775 FILLER_13_497
*776 FILLER_13_503
*777 FILLER_13_505
*778 FILLER_13_51
*779 FILLER_13_517
*780 FILLER_13_525
*781 FILLER_13_55
*782 FILLER_13_57
*783 FILLER_13_69
*784 FILLER_13_81
*785 FILLER_13_93
*786 FILLER_14_109
*787 FILLER_14_121
*788 FILLER_14_133
*789 FILLER_14_139
*790 FILLER_14_141
*791 FILLER_14_15
*792 FILLER_14_153
*793 FILLER_14_165
*794 FILLER_14_177
*795 FILLER_14_189
*796 FILLER_14_195
*797 FILLER_14_197
*798 FILLER_14_209
*799 FILLER_14_221
*800 FILLER_14_233
*801 FILLER_14_245
*802 FILLER_14_251
*803 FILLER_14_253
*804 FILLER_14_265
*805 FILLER_14_27
*806 FILLER_14_277
*807 FILLER_14_289
*808 FILLER_14_29
*809 FILLER_14_3
*810 FILLER_14_301
*811 FILLER_14_307
*812 FILLER_14_309
*813 FILLER_14_321
*814 FILLER_14_333
*815 FILLER_14_345
*816 FILLER_14_357
*817 FILLER_14_363
*818 FILLER_14_365
*819 FILLER_14_377
*820 FILLER_14_389
*821 FILLER_14_401
*822 FILLER_14_41
*823 FILLER_14_413
*824 FILLER_14_419
*825 FILLER_14_421
*826 FILLER_14_433
*827 FILLER_14_445
*828 FILLER_14_457
*829 FILLER_14_469
*830 FILLER_14_475
*831 FILLER_14_477
*832 FILLER_14_489
*833 FILLER_14_501
*834 FILLER_14_525
*835 FILLER_14_53
*836 FILLER_14_65
*837 FILLER_14_77
*838 FILLER_14_83
*839 FILLER_14_85
*840 FILLER_14_97
*841 FILLER_15_105
*842 FILLER_15_111
*843 FILLER_15_113
*844 FILLER_15_125
*845 FILLER_15_137
*846 FILLER_15_149
*847 FILLER_15_15
*848 FILLER_15_161
*849 FILLER_15_167
*850 FILLER_15_169
*851 FILLER_15_181
*852 FILLER_15_193
*853 FILLER_15_205
*854 FILLER_15_217
*855 FILLER_15_223
*856 FILLER_15_225
*857 FILLER_15_237
*858 FILLER_15_249
*859 FILLER_15_261
*860 FILLER_15_27
*861 FILLER_15_273
*862 FILLER_15_279
*863 FILLER_15_281
*864 FILLER_15_293
*865 FILLER_15_3
*866 FILLER_15_305
*867 FILLER_15_317
*868 FILLER_15_329
*869 FILLER_15_335
*870 FILLER_15_337
*871 FILLER_15_349
*872 FILLER_15_361
*873 FILLER_15_373
*874 FILLER_15_385
*875 FILLER_15_39
*876 FILLER_15_391
*877 FILLER_15_393
*878 FILLER_15_405
*879 FILLER_15_417
*880 FILLER_15_429
*881 FILLER_15_441
*882 FILLER_15_447
*883 FILLER_15_449
*884 FILLER_15_461
*885 FILLER_15_473
*886 FILLER_15_485
*887 FILLER_15_497
*888 FILLER_15_503
*889 FILLER_15_505
*890 FILLER_15_51
*891 FILLER_15_525
*892 FILLER_15_55
*893 FILLER_15_57
*894 FILLER_15_69
*895 FILLER_15_81
*896 FILLER_15_93
*897 FILLER_16_109
*898 FILLER_16_121
*899 FILLER_16_133
*900 FILLER_16_139
*901 FILLER_16_141
*902 FILLER_16_15
*903 FILLER_16_153
*904 FILLER_16_165
*905 FILLER_16_177
*906 FILLER_16_189
*907 FILLER_16_195
*908 FILLER_16_197
*909 FILLER_16_209
*910 FILLER_16_221
*911 FILLER_16_233
*912 FILLER_16_245
*913 FILLER_16_251
*914 FILLER_16_253
*915 FILLER_16_265
*916 FILLER_16_27
*917 FILLER_16_277
*918 FILLER_16_289
*919 FILLER_16_29
*920 FILLER_16_3
*921 FILLER_16_301
*922 FILLER_16_307
*923 FILLER_16_309
*924 FILLER_16_321
*925 FILLER_16_333
*926 FILLER_16_345
*927 FILLER_16_357
*928 FILLER_16_363
*929 FILLER_16_365
*930 FILLER_16_377
*931 FILLER_16_389
*932 FILLER_16_401
*933 FILLER_16_41
*934 FILLER_16_413
*935 FILLER_16_419
*936 FILLER_16_421
*937 FILLER_16_433
*938 FILLER_16_445
*939 FILLER_16_457
*940 FILLER_16_469
*941 FILLER_16_475
*942 FILLER_16_477
*943 FILLER_16_489
*944 FILLER_16_501
*945 FILLER_16_513
*946 FILLER_16_525
*947 FILLER_16_53
*948 FILLER_16_65
*949 FILLER_16_77
*950 FILLER_16_83
*951 FILLER_16_85
*952 FILLER_16_97
*953 FILLER_17_105
*954 FILLER_17_111
*955 FILLER_17_113
*956 FILLER_17_125
*957 FILLER_17_137
*958 FILLER_17_149
*959 FILLER_17_15
*960 FILLER_17_161
*961 FILLER_17_167
*962 FILLER_17_169
*963 FILLER_17_181
*964 FILLER_17_193
*965 FILLER_17_205
*966 FILLER_17_217
*967 FILLER_17_223
*968 FILLER_17_225
*969 FILLER_17_237
*970 FILLER_17_249
*971 FILLER_17_261
*972 FILLER_17_27
*973 FILLER_17_273
*974 FILLER_17_279
*975 FILLER_17_281
*976 FILLER_17_293
*977 FILLER_17_3
*978 FILLER_17_305
*979 FILLER_17_317
*980 FILLER_17_329
*981 FILLER_17_335
*982 FILLER_17_337
*983 FILLER_17_349
*984 FILLER_17_361
*985 FILLER_17_373
*986 FILLER_17_385
*987 FILLER_17_39
*988 FILLER_17_391
*989 FILLER_17_393
*990 FILLER_17_405
*991 FILLER_17_417
*992 FILLER_17_429
*993 FILLER_17_441
*994 FILLER_17_447
*995 FILLER_17_449
*996 FILLER_17_461
*997 FILLER_17_473
*998 FILLER_17_485
*999 FILLER_17_497
*1000 FILLER_17_503
*1001 FILLER_17_505
*1002 FILLER_17_51
*1003 FILLER_17_525
*1004 FILLER_17_55
*1005 FILLER_17_57
*1006 FILLER_17_69
*1007 FILLER_17_81
*1008 FILLER_17_93
*1009 FILLER_18_109
*1010 FILLER_18_121
*1011 FILLER_18_133
*1012 FILLER_18_139
*1013 FILLER_18_141
*1014 FILLER_18_15
*1015 FILLER_18_153
*1016 FILLER_18_165
*1017 FILLER_18_177
*1018 FILLER_18_189
*1019 FILLER_18_195
*1020 FILLER_18_197
*1021 FILLER_18_209
*1022 FILLER_18_221
*1023 FILLER_18_233
*1024 FILLER_18_245
*1025 FILLER_18_251
*1026 FILLER_18_253
*1027 FILLER_18_265
*1028 FILLER_18_27
*1029 FILLER_18_277
*1030 FILLER_18_289
*1031 FILLER_18_29
*1032 FILLER_18_3
*1033 FILLER_18_301
*1034 FILLER_18_307
*1035 FILLER_18_309
*1036 FILLER_18_321
*1037 FILLER_18_333
*1038 FILLER_18_345
*1039 FILLER_18_357
*1040 FILLER_18_363
*1041 FILLER_18_365
*1042 FILLER_18_377
*1043 FILLER_18_389
*1044 FILLER_18_401
*1045 FILLER_18_41
*1046 FILLER_18_413
*1047 FILLER_18_419
*1048 FILLER_18_421
*1049 FILLER_18_433
*1050 FILLER_18_445
*1051 FILLER_18_457
*1052 FILLER_18_469
*1053 FILLER_18_475
*1054 FILLER_18_477
*1055 FILLER_18_489
*1056 FILLER_18_501
*1057 FILLER_18_525
*1058 FILLER_18_53
*1059 FILLER_18_65
*1060 FILLER_18_77
*1061 FILLER_18_83
*1062 FILLER_18_85
*1063 FILLER_18_97
*1064 FILLER_19_105
*1065 FILLER_19_111
*1066 FILLER_19_113
*1067 FILLER_19_125
*1068 FILLER_19_137
*1069 FILLER_19_149
*1070 FILLER_19_15
*1071 FILLER_19_161
*1072 FILLER_19_167
*1073 FILLER_19_169
*1074 FILLER_19_181
*1075 FILLER_19_193
*1076 FILLER_19_205
*1077 FILLER_19_217
*1078 FILLER_19_223
*1079 FILLER_19_225
*1080 FILLER_19_237
*1081 FILLER_19_249
*1082 FILLER_19_261
*1083 FILLER_19_27
*1084 FILLER_19_273
*1085 FILLER_19_279
*1086 FILLER_19_281
*1087 FILLER_19_293
*1088 FILLER_19_3
*1089 FILLER_19_305
*1090 FILLER_19_317
*1091 FILLER_19_329
*1092 FILLER_19_335
*1093 FILLER_19_337
*1094 FILLER_19_349
*1095 FILLER_19_361
*1096 FILLER_19_373
*1097 FILLER_19_385
*1098 FILLER_19_39
*1099 FILLER_19_391
*1100 FILLER_19_393
*1101 FILLER_19_405
*1102 FILLER_19_417
*1103 FILLER_19_429
*1104 FILLER_19_441
*1105 FILLER_19_447
*1106 FILLER_19_449
*1107 FILLER_19_461
*1108 FILLER_19_473
*1109 FILLER_19_485
*1110 FILLER_19_497
*1111 FILLER_19_503
*1112 FILLER_19_505
*1113 FILLER_19_51
*1114 FILLER_19_515
*1115 FILLER_19_55
*1116 FILLER_19_57
*1117 FILLER_19_69
*1118 FILLER_19_81
*1119 FILLER_19_93
*1120 FILLER_1_105
*1121 FILLER_1_111
*1122 FILLER_1_113
*1123 FILLER_1_125
*1124 FILLER_1_137
*1125 FILLER_1_149
*1126 FILLER_1_15
*1127 FILLER_1_161
*1128 FILLER_1_167
*1129 FILLER_1_169
*1130 FILLER_1_181
*1131 FILLER_1_193
*1132 FILLER_1_205
*1133 FILLER_1_217
*1134 FILLER_1_223
*1135 FILLER_1_225
*1136 FILLER_1_237
*1137 FILLER_1_249
*1138 FILLER_1_261
*1139 FILLER_1_27
*1140 FILLER_1_273
*1141 FILLER_1_279
*1142 FILLER_1_281
*1143 FILLER_1_293
*1144 FILLER_1_3
*1145 FILLER_1_305
*1146 FILLER_1_317
*1147 FILLER_1_329
*1148 FILLER_1_335
*1149 FILLER_1_337
*1150 FILLER_1_349
*1151 FILLER_1_361
*1152 FILLER_1_373
*1153 FILLER_1_385
*1154 FILLER_1_39
*1155 FILLER_1_391
*1156 FILLER_1_393
*1157 FILLER_1_405
*1158 FILLER_1_417
*1159 FILLER_1_429
*1160 FILLER_1_441
*1161 FILLER_1_447
*1162 FILLER_1_449
*1163 FILLER_1_461
*1164 FILLER_1_473
*1165 FILLER_1_485
*1166 FILLER_1_497
*1167 FILLER_1_503
*1168 FILLER_1_505
*1169 FILLER_1_51
*1170 FILLER_1_517
*1171 FILLER_1_525
*1172 FILLER_1_55
*1173 FILLER_1_57
*1174 FILLER_1_69
*1175 FILLER_1_81
*1176 FILLER_1_93
*1177 FILLER_20_109
*1178 FILLER_20_121
*1179 FILLER_20_133
*1180 FILLER_20_139
*1181 FILLER_20_141
*1182 FILLER_20_15
*1183 FILLER_20_153
*1184 FILLER_20_165
*1185 FILLER_20_177
*1186 FILLER_20_189
*1187 FILLER_20_195
*1188 FILLER_20_197
*1189 FILLER_20_209
*1190 FILLER_20_221
*1191 FILLER_20_233
*1192 FILLER_20_245
*1193 FILLER_20_251
*1194 FILLER_20_253
*1195 FILLER_20_265
*1196 FILLER_20_27
*1197 FILLER_20_277
*1198 FILLER_20_289
*1199 FILLER_20_29
*1200 FILLER_20_3
*1201 FILLER_20_301
*1202 FILLER_20_307
*1203 FILLER_20_309
*1204 FILLER_20_321
*1205 FILLER_20_333
*1206 FILLER_20_345
*1207 FILLER_20_357
*1208 FILLER_20_363
*1209 FILLER_20_365
*1210 FILLER_20_377
*1211 FILLER_20_389
*1212 FILLER_20_401
*1213 FILLER_20_41
*1214 FILLER_20_413
*1215 FILLER_20_419
*1216 FILLER_20_421
*1217 FILLER_20_433
*1218 FILLER_20_445
*1219 FILLER_20_457
*1220 FILLER_20_469
*1221 FILLER_20_475
*1222 FILLER_20_477
*1223 FILLER_20_489
*1224 FILLER_20_501
*1225 FILLER_20_525
*1226 FILLER_20_53
*1227 FILLER_20_65
*1228 FILLER_20_77
*1229 FILLER_20_83
*1230 FILLER_20_85
*1231 FILLER_20_97
*1232 FILLER_21_105
*1233 FILLER_21_111
*1234 FILLER_21_113
*1235 FILLER_21_125
*1236 FILLER_21_137
*1237 FILLER_21_149
*1238 FILLER_21_15
*1239 FILLER_21_161
*1240 FILLER_21_167
*1241 FILLER_21_169
*1242 FILLER_21_181
*1243 FILLER_21_193
*1244 FILLER_21_205
*1245 FILLER_21_217
*1246 FILLER_21_223
*1247 FILLER_21_225
*1248 FILLER_21_237
*1249 FILLER_21_249
*1250 FILLER_21_261
*1251 FILLER_21_27
*1252 FILLER_21_273
*1253 FILLER_21_279
*1254 FILLER_21_281
*1255 FILLER_21_293
*1256 FILLER_21_3
*1257 FILLER_21_305
*1258 FILLER_21_317
*1259 FILLER_21_329
*1260 FILLER_21_335
*1261 FILLER_21_337
*1262 FILLER_21_349
*1263 FILLER_21_361
*1264 FILLER_21_373
*1265 FILLER_21_385
*1266 FILLER_21_39
*1267 FILLER_21_391
*1268 FILLER_21_393
*1269 FILLER_21_405
*1270 FILLER_21_417
*1271 FILLER_21_429
*1272 FILLER_21_441
*1273 FILLER_21_447
*1274 FILLER_21_449
*1275 FILLER_21_461
*1276 FILLER_21_473
*1277 FILLER_21_485
*1278 FILLER_21_497
*1279 FILLER_21_503
*1280 FILLER_21_505
*1281 FILLER_21_51
*1282 FILLER_21_525
*1283 FILLER_21_55