*SPEF "ieee 1481-1999"
*DESIGN "top_tile"
*DATE "11:11:11 Fri 11 11, 1111"
*VENDOR "OpenRCX"
*PROGRAM "Parallel Extraction"
*VERSION "1.0"
*DESIGN_FLOW "NAME_SCOPE LOCAL" "PIN_CAP NONE"
*DIVIDER /
*DELIMITER :
*BUS_DELIMITER []
*T_UNIT 1 NS
*C_UNIT 1 PF
*R_UNIT 1 OHM
*L_UNIT 1 HENRY

*NAME_MAP
*3 bottom_width_0_height_0_subtile_0__pin_cout_0_
*4 bottom_width_0_height_0_subtile_0__pin_inpad_0_
*5 bottom_width_0_height_0_subtile_0__pin_reg_out_0_
*6 bottom_width_0_height_0_subtile_1__pin_inpad_0_
*7 bottom_width_0_height_0_subtile_2__pin_inpad_0_
*8 bottom_width_0_height_0_subtile_3__pin_inpad_0_
*9 ccff_head_1
*10 ccff_head_2
*11 ccff_tail
*12 ccff_tail_0
*13 chanx_left_in[0]
*14 chanx_left_in[10]
*15 chanx_left_in[11]
*16 chanx_left_in[12]
*17 chanx_left_in[13]
*18 chanx_left_in[14]
*19 chanx_left_in[15]
*20 chanx_left_in[16]
*21 chanx_left_in[17]
*22 chanx_left_in[18]
*23 chanx_left_in[19]
*24 chanx_left_in[1]
*25 chanx_left_in[20]
*26 chanx_left_in[21]
*27 chanx_left_in[22]
*28 chanx_left_in[23]
*29 chanx_left_in[24]
*30 chanx_left_in[25]
*31 chanx_left_in[26]
*32 chanx_left_in[27]
*33 chanx_left_in[28]
*34 chanx_left_in[29]
*35 chanx_left_in[2]
*36 chanx_left_in[3]
*37 chanx_left_in[4]
*38 chanx_left_in[5]
*39 chanx_left_in[6]
*40 chanx_left_in[7]
*41 chanx_left_in[8]
*42 chanx_left_in[9]
*43 chanx_left_out[0]
*44 chanx_left_out[10]
*45 chanx_left_out[11]
*46 chanx_left_out[12]
*47 chanx_left_out[13]
*48 chanx_left_out[14]
*49 chanx_left_out[15]
*50 chanx_left_out[16]
*51 chanx_left_out[17]
*52 chanx_left_out[18]
*53 chanx_left_out[19]
*54 chanx_left_out[1]
*55 chanx_left_out[20]
*56 chanx_left_out[21]
*57 chanx_left_out[22]
*58 chanx_left_out[23]
*59 chanx_left_out[24]
*60 chanx_left_out[25]
*61 chanx_left_out[26]
*62 chanx_left_out[27]
*63 chanx_left_out[28]
*64 chanx_left_out[29]
*65 chanx_left_out[2]
*66 chanx_left_out[3]
*67 chanx_left_out[4]
*68 chanx_left_out[5]
*69 chanx_left_out[6]
*70 chanx_left_out[7]
*71 chanx_left_out[8]
*72 chanx_left_out[9]
*73 chanx_right_in_0[0]
*74 chanx_right_in_0[10]
*75 chanx_right_in_0[11]
*76 chanx_right_in_0[12]
*77 chanx_right_in_0[13]
*78 chanx_right_in_0[14]
*79 chanx_right_in_0[15]
*80 chanx_right_in_0[16]
*81 chanx_right_in_0[17]
*82 chanx_right_in_0[18]
*83 chanx_right_in_0[19]
*84 chanx_right_in_0[1]
*85 chanx_right_in_0[20]
*86 chanx_right_in_0[21]
*87 chanx_right_in_0[22]
*88 chanx_right_in_0[23]
*89 chanx_right_in_0[24]
*90 chanx_right_in_0[25]
*91 chanx_right_in_0[26]
*92 chanx_right_in_0[27]
*93 chanx_right_in_0[28]
*94 chanx_right_in_0[29]
*95 chanx_right_in_0[2]
*96 chanx_right_in_0[3]
*97 chanx_right_in_0[4]
*98 chanx_right_in_0[5]
*99 chanx_right_in_0[6]
*100 chanx_right_in_0[7]
*101 chanx_right_in_0[8]
*102 chanx_right_in_0[9]
*103 chanx_right_out_0[0]
*104 chanx_right_out_0[10]
*105 chanx_right_out_0[11]
*106 chanx_right_out_0[12]
*107 chanx_right_out_0[13]
*108 chanx_right_out_0[14]
*109 chanx_right_out_0[15]
*110 chanx_right_out_0[16]
*111 chanx_right_out_0[17]
*112 chanx_right_out_0[18]
*113 chanx_right_out_0[19]
*114 chanx_right_out_0[1]
*115 chanx_right_out_0[20]
*116 chanx_right_out_0[21]
*117 chanx_right_out_0[22]
*118 chanx_right_out_0[23]
*119 chanx_right_out_0[24]
*120 chanx_right_out_0[25]
*121 chanx_right_out_0[26]
*122 chanx_right_out_0[27]
*123 chanx_right_out_0[28]
*124 chanx_right_out_0[29]
*125 chanx_right_out_0[2]
*126 chanx_right_out_0[3]
*127 chanx_right_out_0[4]
*128 chanx_right_out_0[5]
*129 chanx_right_out_0[6]
*130 chanx_right_out_0[7]
*131 chanx_right_out_0[8]
*132 chanx_right_out_0[9]
*133 chany_bottom_in[0]
*134 chany_bottom_in[10]
*135 chany_bottom_in[11]
*136 chany_bottom_in[12]
*137 chany_bottom_in[13]
*138 chany_bottom_in[14]
*139 chany_bottom_in[15]
*140 chany_bottom_in[16]
*141 chany_bottom_in[17]
*142 chany_bottom_in[18]
*143 chany_bottom_in[19]
*144 chany_bottom_in[1]
*145 chany_bottom_in[20]
*146 chany_bottom_in[21]
*147 chany_bottom_in[22]
*148 chany_bottom_in[23]
*149 chany_bottom_in[24]
*150 chany_bottom_in[25]
*151 chany_bottom_in[26]
*152 chany_bottom_in[27]
*153 chany_bottom_in[28]
*154 chany_bottom_in[29]
*155 chany_bottom_in[2]
*156 chany_bottom_in[3]
*157 chany_bottom_in[4]
*158 chany_bottom_in[5]
*159 chany_bottom_in[6]
*160 chany_bottom_in[7]
*161 chany_bottom_in[8]
*162 chany_bottom_in[9]
*163 chany_bottom_out[0]
*164 chany_bottom_out[10]
*165 chany_bottom_out[11]
*166 chany_bottom_out[12]
*167 chany_bottom_out[13]
*168 chany_bottom_out[14]
*169 chany_bottom_out[15]
*170 chany_bottom_out[16]
*171 chany_bottom_out[17]
*172 chany_bottom_out[18]
*173 chany_bottom_out[19]
*174 chany_bottom_out[1]
*175 chany_bottom_out[20]
*176 chany_bottom_out[21]
*177 chany_bottom_out[22]
*178 chany_bottom_out[23]
*179 chany_bottom_out[24]
*180 chany_bottom_out[25]
*181 chany_bottom_out[26]
*182 chany_bottom_out[27]
*183 chany_bottom_out[28]
*184 chany_bottom_out[29]
*185 chany_bottom_out[2]
*186 chany_bottom_out[3]
*187 chany_bottom_out[4]
*188 chany_bottom_out[5]
*189 chany_bottom_out[6]
*190 chany_bottom_out[7]
*191 chany_bottom_out[8]
*192 chany_bottom_out[9]
*193 clk0
*194 gfpga_pad_io_soc_dir[0]
*195 gfpga_pad_io_soc_dir[1]
*196 gfpga_pad_io_soc_dir[2]
*197 gfpga_pad_io_soc_dir[3]
*198 gfpga_pad_io_soc_in[0]
*199 gfpga_pad_io_soc_in[1]
*200 gfpga_pad_io_soc_in[2]
*201 gfpga_pad_io_soc_in[3]
*202 gfpga_pad_io_soc_out[0]
*203 gfpga_pad_io_soc_out[1]
*204 gfpga_pad_io_soc_out[2]
*205 gfpga_pad_io_soc_out[3]
*206 isol_n
*207 prog_clk
*208 prog_reset_bottom_in
*209 reset_bottom_in
*210 right_bottom_grid_top_width_0_height_0_subtile_0__pin_O_0_
*211 right_bottom_grid_top_width_0_height_0_subtile_0__pin_O_1_
*212 right_bottom_grid_top_width_0_height_0_subtile_0__pin_O_2_
*213 right_bottom_grid_top_width_0_height_0_subtile_0__pin_O_3_
*214 right_bottom_grid_top_width_0_height_0_subtile_0__pin_O_4_
*215 right_bottom_grid_top_width_0_height_0_subtile_0__pin_O_5_
*216 right_bottom_grid_top_width_0_height_0_subtile_0__pin_O_6_
*217 right_bottom_grid_top_width_0_height_0_subtile_0__pin_O_7_
*218 right_top_grid_bottom_width_0_height_0_subtile_0__pin_inpad_0_
*219 right_top_grid_bottom_width_0_height_0_subtile_1__pin_inpad_0_
*220 right_top_grid_bottom_width_0_height_0_subtile_2__pin_inpad_0_
*221 right_top_grid_bottom_width_0_height_0_subtile_3__pin_inpad_0_
*222 right_width_0_height_0_subtile_0__pin_O_10_
*223 right_width_0_height_0_subtile_0__pin_O_11_
*224 right_width_0_height_0_subtile_0__pin_O_12_
*225 right_width_0_height_0_subtile_0__pin_O_13_
*226 right_width_0_height_0_subtile_0__pin_O_14_
*227 right_width_0_height_0_subtile_0__pin_O_15_
*228 right_width_0_height_0_subtile_0__pin_O_8_
*229 right_width_0_height_0_subtile_0__pin_O_9_
*230 sc_in
*231 sc_out
*232 test_enable_bottom_in
*233 top_width_0_height_0_subtile_0__pin_O_0_
*234 top_width_0_height_0_subtile_0__pin_O_1_
*235 top_width_0_height_0_subtile_0__pin_O_2_
*236 top_width_0_height_0_subtile_0__pin_O_3_
*237 top_width_0_height_0_subtile_0__pin_O_4_
*238 top_width_0_height_0_subtile_0__pin_O_5_
*239 top_width_0_height_0_subtile_0__pin_O_6_
*240 top_width_0_height_0_subtile_0__pin_O_7_
*241 top_width_0_height_0_subtile_0__pin_cin_0_
*242 top_width_0_height_0_subtile_0__pin_reg_in_0_
*243 cbx_1__8_\.bottom_grid_top_width_0_height_0_subtile_0__pin_I0_0_
*244 cbx_1__8_\.bottom_grid_top_width_0_height_0_subtile_0__pin_I0_1_
*245 cbx_1__8_\.bottom_grid_top_width_0_height_0_subtile_0__pin_I0i_0_
*246 cbx_1__8_\.bottom_grid_top_width_0_height_0_subtile_0__pin_I0i_1_
*247 cbx_1__8_\.bottom_grid_top_width_0_height_0_subtile_0__pin_I1_0_
*248 cbx_1__8_\.bottom_grid_top_width_0_height_0_subtile_0__pin_I1_1_
*249 cbx_1__8_\.bottom_grid_top_width_0_height_0_subtile_0__pin_I1i_0_
*250 cbx_1__8_\.bottom_grid_top_width_0_height_0_subtile_0__pin_I1i_1_
*251 cbx_1__8_\.bottom_grid_top_width_0_height_0_subtile_0__pin_I2_0_
*252 cbx_1__8_\.bottom_grid_top_width_0_height_0_subtile_0__pin_I2_1_
*253 cbx_1__8_\.bottom_grid_top_width_0_height_0_subtile_0__pin_I2i_0_
*254 cbx_1__8_\.bottom_grid_top_width_0_height_0_subtile_0__pin_I2i_1_
*255 cbx_1__8_\.bottom_grid_top_width_0_height_0_subtile_0__pin_I3_0_
*256 cbx_1__8_\.bottom_grid_top_width_0_height_0_subtile_0__pin_I3_1_
*257 cbx_1__8_\.bottom_grid_top_width_0_height_0_subtile_0__pin_I3i_0_
*258 cbx_1__8_\.bottom_grid_top_width_0_height_0_subtile_0__pin_I3i_1_
*259 cbx_1__8_\.cbx_1__8_\.ccff_head
*260 cbx_1__8_\.cbx_1__8_\.ccff_tail
*261 cbx_1__8_\.cbx_1__8_\.mem_bottom_ipin_0\.ccff_tail
*262 cbx_1__8_\.cbx_1__8_\.mem_bottom_ipin_0\.mem_out\[0\]
*263 cbx_1__8_\.cbx_1__8_\.mem_bottom_ipin_0\.mem_out\[1\]
*264 cbx_1__8_\.cbx_1__8_\.mem_bottom_ipin_0\.mem_out\[2\]
*265 cbx_1__8_\.cbx_1__8_\.mem_bottom_ipin_1\.ccff_tail
*266 cbx_1__8_\.cbx_1__8_\.mem_bottom_ipin_1\.mem_out\[0\]
*267 cbx_1__8_\.cbx_1__8_\.mem_bottom_ipin_1\.mem_out\[1\]
*268 cbx_1__8_\.cbx_1__8_\.mem_bottom_ipin_1\.mem_out\[2\]
*269 cbx_1__8_\.cbx_1__8_\.mem_bottom_ipin_2\.ccff_tail
*270 cbx_1__8_\.cbx_1__8_\.mem_bottom_ipin_2\.mem_out\[0\]
*271 cbx_1__8_\.cbx_1__8_\.mem_bottom_ipin_2\.mem_out\[1\]
*272 cbx_1__8_\.cbx_1__8_\.mem_bottom_ipin_2\.mem_out\[2\]
*273 cbx_1__8_\.cbx_1__8_\.mem_bottom_ipin_3\.ccff_tail
*274 cbx_1__8_\.cbx_1__8_\.mem_bottom_ipin_3\.mem_out\[0\]
*275 cbx_1__8_\.cbx_1__8_\.mem_bottom_ipin_3\.mem_out\[1\]
*276 cbx_1__8_\.cbx_1__8_\.mem_bottom_ipin_3\.mem_out\[2\]
*277 cbx_1__8_\.cbx_1__8_\.mem_top_ipin_0\.ccff_tail
*278 cbx_1__8_\.cbx_1__8_\.mem_top_ipin_0\.mem_out\[0\]
*279 cbx_1__8_\.cbx_1__8_\.mem_top_ipin_0\.mem_out\[1\]
*280 cbx_1__8_\.cbx_1__8_\.mem_top_ipin_0\.mem_out\[2\]
*281 cbx_1__8_\.cbx_1__8_\.mem_top_ipin_1\.ccff_tail
*282 cbx_1__8_\.cbx_1__8_\.mem_top_ipin_1\.mem_out\[0\]
*283 cbx_1__8_\.cbx_1__8_\.mem_top_ipin_1\.mem_out\[1\]
*284 cbx_1__8_\.cbx_1__8_\.mem_top_ipin_1\.mem_out\[2\]
*285 cbx_1__8_\.cbx_1__8_\.mem_top_ipin_10\.ccff_head
*286 cbx_1__8_\.cbx_1__8_\.mem_top_ipin_10\.ccff_tail
*287 cbx_1__8_\.cbx_1__8_\.mem_top_ipin_10\.mem_out\[0\]
*288 cbx_1__8_\.cbx_1__8_\.mem_top_ipin_10\.mem_out\[1\]
*289 cbx_1__8_\.cbx_1__8_\.mem_top_ipin_10\.mem_out\[2\]
*290 cbx_1__8_\.cbx_1__8_\.mem_top_ipin_11\.ccff_tail
*291 cbx_1__8_\.cbx_1__8_\.mem_top_ipin_11\.mem_out\[0\]
*292 cbx_1__8_\.cbx_1__8_\.mem_top_ipin_11\.mem_out\[1\]
*293 cbx_1__8_\.cbx_1__8_\.mem_top_ipin_11\.mem_out\[2\]
*294 cbx_1__8_\.cbx_1__8_\.mem_top_ipin_12\.ccff_tail
*295 cbx_1__8_\.cbx_1__8_\.mem_top_ipin_12\.mem_out\[0\]
*296 cbx_1__8_\.cbx_1__8_\.mem_top_ipin_12\.mem_out\[1\]
*297 cbx_1__8_\.cbx_1__8_\.mem_top_ipin_12\.mem_out\[2\]
*298 cbx_1__8_\.cbx_1__8_\.mem_top_ipin_13\.ccff_tail
*299 cbx_1__8_\.cbx_1__8_\.mem_top_ipin_13\.mem_out\[0\]
*300 cbx_1__8_\.cbx_1__8_\.mem_top_ipin_13\.mem_out\[1\]
*301 cbx_1__8_\.cbx_1__8_\.mem_top_ipin_13\.mem_out\[2\]
*302 cbx_1__8_\.cbx_1__8_\.mem_top_ipin_14\.ccff_tail
*303 cbx_1__8_\.cbx_1__8_\.mem_top_ipin_14\.mem_out\[0\]
*304 cbx_1__8_\.cbx_1__8_\.mem_top_ipin_14\.mem_out\[1\]
*305 cbx_1__8_\.cbx_1__8_\.mem_top_ipin_14\.mem_out\[2\]
*306 cbx_1__8_\.cbx_1__8_\.mem_top_ipin_15\.mem_out\[0\]
*307 cbx_1__8_\.cbx_1__8_\.mem_top_ipin_15\.mem_out\[1\]
*308 cbx_1__8_\.cbx_1__8_\.mem_top_ipin_15\.mem_out\[2\]
*309 cbx_1__8_\.cbx_1__8_\.mem_top_ipin_2\.ccff_tail
*310 cbx_1__8_\.cbx_1__8_\.mem_top_ipin_2\.mem_out\[0\]
*311 cbx_1__8_\.cbx_1__8_\.mem_top_ipin_2\.mem_out\[1\]
*312 cbx_1__8_\.cbx_1__8_\.mem_top_ipin_2\.mem_out\[2\]
*313 cbx_1__8_\.cbx_1__8_\.mem_top_ipin_3\.ccff_tail
*314 cbx_1__8_\.cbx_1__8_\.mem_top_ipin_3\.mem_out\[0\]
*315 cbx_1__8_\.cbx_1__8_\.mem_top_ipin_3\.mem_out\[1\]
*316 cbx_1__8_\.cbx_1__8_\.mem_top_ipin_3\.mem_out\[2\]
*317 cbx_1__8_\.cbx_1__8_\.mem_top_ipin_4\.ccff_tail
*318 cbx_1__8_\.cbx_1__8_\.mem_top_ipin_4\.mem_out\[0\]
*319 cbx_1__8_\.cbx_1__8_\.mem_top_ipin_4\.mem_out\[1\]
*320 cbx_1__8_\.cbx_1__8_\.mem_top_ipin_4\.mem_out\[2\]
*321 cbx_1__8_\.cbx_1__8_\.mem_top_ipin_5\.ccff_tail
*322 cbx_1__8_\.cbx_1__8_\.mem_top_ipin_5\.mem_out\[0\]
*323 cbx_1__8_\.cbx_1__8_\.mem_top_ipin_5\.mem_out\[1\]
*324 cbx_1__8_\.cbx_1__8_\.mem_top_ipin_5\.mem_out\[2\]
*325 cbx_1__8_\.cbx_1__8_\.mem_top_ipin_6\.ccff_tail
*326 cbx_1__8_\.cbx_1__8_\.mem_top_ipin_6\.mem_out\[0\]
*327 cbx_1__8_\.cbx_1__8_\.mem_top_ipin_6\.mem_out\[1\]
*328 cbx_1__8_\.cbx_1__8_\.mem_top_ipin_6\.mem_out\[2\]
*329 cbx_1__8_\.cbx_1__8_\.mem_top_ipin_7\.ccff_tail
*330 cbx_1__8_\.cbx_1__8_\.mem_top_ipin_7\.mem_out\[0\]
*331 cbx_1__8_\.cbx_1__8_\.mem_top_ipin_7\.mem_out\[1\]
*332 cbx_1__8_\.cbx_1__8_\.mem_top_ipin_7\.mem_out\[2\]
*333 cbx_1__8_\.cbx_1__8_\.mem_top_ipin_8\.ccff_tail
*334 cbx_1__8_\.cbx_1__8_\.mem_top_ipin_8\.mem_out\[0\]
*335 cbx_1__8_\.cbx_1__8_\.mem_top_ipin_8\.mem_out\[1\]
*336 cbx_1__8_\.cbx_1__8_\.mem_top_ipin_8\.mem_out\[2\]
*337 cbx_1__8_\.cbx_1__8_\.mem_top_ipin_9\.mem_out\[0\]
*338 cbx_1__8_\.cbx_1__8_\.mem_top_ipin_9\.mem_out\[1\]
*339 cbx_1__8_\.cbx_1__8_\.mem_top_ipin_9\.mem_out\[2\]
*340 cbx_1__8_\.cbx_1__8_\.mux_bottom_ipin_0\.out
*341 cbx_1__8_\.cbx_1__8_\.mux_bottom_ipin_0\.sky130_fd_sc_hd__mux2_1_0_X
*342 cbx_1__8_\.cbx_1__8_\.mux_bottom_ipin_0\.sky130_fd_sc_hd__mux2_1_10_X
*343 cbx_1__8_\.cbx_1__8_\.mux_bottom_ipin_0\.sky130_fd_sc_hd__mux2_1_11_X
*344 cbx_1__8_\.cbx_1__8_\.mux_bottom_ipin_0\.sky130_fd_sc_hd__mux2_1_1_X
*345 cbx_1__8_\.cbx_1__8_\.mux_bottom_ipin_0\.sky130_fd_sc_hd__mux2_1_2_X
*346 cbx_1__8_\.cbx_1__8_\.mux_bottom_ipin_0\.sky130_fd_sc_hd__mux2_1_3_X
*347 cbx_1__8_\.cbx_1__8_\.mux_bottom_ipin_0\.sky130_fd_sc_hd__mux2_1_4_X
*348 cbx_1__8_\.cbx_1__8_\.mux_bottom_ipin_0\.sky130_fd_sc_hd__mux2_1_5_X
*349 cbx_1__8_\.cbx_1__8_\.mux_bottom_ipin_0\.sky130_fd_sc_hd__mux2_1_6_X
*350 cbx_1__8_\.cbx_1__8_\.mux_bottom_ipin_0\.sky130_fd_sc_hd__mux2_1_7_X
*351 cbx_1__8_\.cbx_1__8_\.mux_bottom_ipin_0\.sky130_fd_sc_hd__mux2_1_8_X
*352 cbx_1__8_\.cbx_1__8_\.mux_bottom_ipin_0\.sky130_fd_sc_hd__mux2_1_9_X
*353 cbx_1__8_\.cbx_1__8_\.mux_bottom_ipin_1\.out
*354 cbx_1__8_\.cbx_1__8_\.mux_bottom_ipin_1\.sky130_fd_sc_hd__mux2_1_0_X
*355 cbx_1__8_\.cbx_1__8_\.mux_bottom_ipin_1\.sky130_fd_sc_hd__mux2_1_10_X
*356 cbx_1__8_\.cbx_1__8_\.mux_bottom_ipin_1\.sky130_fd_sc_hd__mux2_1_11_X
*357 cbx_1__8_\.cbx_1__8_\.mux_bottom_ipin_1\.sky130_fd_sc_hd__mux2_1_1_X
*358 cbx_1__8_\.cbx_1__8_\.mux_bottom_ipin_1\.sky130_fd_sc_hd__mux2_1_2_X
*359 cbx_1__8_\.cbx_1__8_\.mux_bottom_ipin_1\.sky130_fd_sc_hd__mux2_1_3_X
*360 cbx_1__8_\.cbx_1__8_\.mux_bottom_ipin_1\.sky130_fd_sc_hd__mux2_1_4_X
*361 cbx_1__8_\.cbx_1__8_\.mux_bottom_ipin_1\.sky130_fd_sc_hd__mux2_1_5_X
*362 cbx_1__8_\.cbx_1__8_\.mux_bottom_ipin_1\.sky130_fd_sc_hd__mux2_1_6_X
*363 cbx_1__8_\.cbx_1__8_\.mux_bottom_ipin_1\.sky130_fd_sc_hd__mux2_1_7_X
*364 cbx_1__8_\.cbx_1__8_\.mux_bottom_ipin_1\.sky130_fd_sc_hd__mux2_1_8_X
*365 cbx_1__8_\.cbx_1__8_\.mux_bottom_ipin_1\.sky130_fd_sc_hd__mux2_1_9_X
*366 cbx_1__8_\.cbx_1__8_\.mux_bottom_ipin_2\.out
*367 cbx_1__8_\.cbx_1__8_\.mux_bottom_ipin_2\.sky130_fd_sc_hd__mux2_1_0_X
*368 cbx_1__8_\.cbx_1__8_\.mux_bottom_ipin_2\.sky130_fd_sc_hd__mux2_1_10_X
*369 cbx_1__8_\.cbx_1__8_\.mux_bottom_ipin_2\.sky130_fd_sc_hd__mux2_1_11_X
*370 cbx_1__8_\.cbx_1__8_\.mux_bottom_ipin_2\.sky130_fd_sc_hd__mux2_1_1_X
*371 cbx_1__8_\.cbx_1__8_\.mux_bottom_ipin_2\.sky130_fd_sc_hd__mux2_1_2_X
*372 cbx_1__8_\.cbx_1__8_\.mux_bottom_ipin_2\.sky130_fd_sc_hd__mux2_1_3_X
*373 cbx_1__8_\.cbx_1__8_\.mux_bottom_ipin_2\.sky130_fd_sc_hd__mux2_1_4_X
*374 cbx_1__8_\.cbx_1__8_\.mux_bottom_ipin_2\.sky130_fd_sc_hd__mux2_1_5_X
*375 cbx_1__8_\.cbx_1__8_\.mux_bottom_ipin_2\.sky130_fd_sc_hd__mux2_1_6_X
*376 cbx_1__8_\.cbx_1__8_\.mux_bottom_ipin_2\.sky130_fd_sc_hd__mux2_1_7_X
*377 cbx_1__8_\.cbx_1__8_\.mux_bottom_ipin_2\.sky130_fd_sc_hd__mux2_1_8_X
*378 cbx_1__8_\.cbx_1__8_\.mux_bottom_ipin_2\.sky130_fd_sc_hd__mux2_1_9_X
*379 cbx_1__8_\.cbx_1__8_\.mux_bottom_ipin_3\.out
*380 cbx_1__8_\.cbx_1__8_\.mux_bottom_ipin_3\.sky130_fd_sc_hd__mux2_1_0_X
*381 cbx_1__8_\.cbx_1__8_\.mux_bottom_ipin_3\.sky130_fd_sc_hd__mux2_1_10_X
*382 cbx_1__8_\.cbx_1__8_\.mux_bottom_ipin_3\.sky130_fd_sc_hd__mux2_1_11_X
*383 cbx_1__8_\.cbx_1__8_\.mux_bottom_ipin_3\.sky130_fd_sc_hd__mux2_1_1_X
*384 cbx_1__8_\.cbx_1__8_\.mux_bottom_ipin_3\.sky130_fd_sc_hd__mux2_1_2_X
*385 cbx_1__8_\.cbx_1__8_\.mux_bottom_ipin_3\.sky130_fd_sc_hd__mux2_1_3_X
*386 cbx_1__8_\.cbx_1__8_\.mux_bottom_ipin_3\.sky130_fd_sc_hd__mux2_1_4_X
*387 cbx_1__8_\.cbx_1__8_\.mux_bottom_ipin_3\.sky130_fd_sc_hd__mux2_1_5_X
*388 cbx_1__8_\.cbx_1__8_\.mux_bottom_ipin_3\.sky130_fd_sc_hd__mux2_1_6_X
*389 cbx_1__8_\.cbx_1__8_\.mux_bottom_ipin_3\.sky130_fd_sc_hd__mux2_1_7_X
*390 cbx_1__8_\.cbx_1__8_\.mux_bottom_ipin_3\.sky130_fd_sc_hd__mux2_1_8_X
*391 cbx_1__8_\.cbx_1__8_\.mux_bottom_ipin_3\.sky130_fd_sc_hd__mux2_1_9_X
*392 cbx_1__8_\.cbx_1__8_\.mux_top_ipin_0\.sky130_fd_sc_hd__mux2_1_0_X
*393 cbx_1__8_\.cbx_1__8_\.mux_top_ipin_0\.sky130_fd_sc_hd__mux2_1_10_X
*394 cbx_1__8_\.cbx_1__8_\.mux_top_ipin_0\.sky130_fd_sc_hd__mux2_1_11_X
*395 cbx_1__8_\.cbx_1__8_\.mux_top_ipin_0\.sky130_fd_sc_hd__mux2_1_1_X
*396 cbx_1__8_\.cbx_1__8_\.mux_top_ipin_0\.sky130_fd_sc_hd__mux2_1_2_X
*397 cbx_1__8_\.cbx_1__8_\.mux_top_ipin_0\.sky130_fd_sc_hd__mux2_1_3_X
*398 cbx_1__8_\.cbx_1__8_\.mux_top_ipin_0\.sky130_fd_sc_hd__mux2_1_4_X
*399 cbx_1__8_\.cbx_1__8_\.mux_top_ipin_0\.sky130_fd_sc_hd__mux2_1_5_X
*400 cbx_1__8_\.cbx_1__8_\.mux_top_ipin_0\.sky130_fd_sc_hd__mux2_1_6_X
*401 cbx_1__8_\.cbx_1__8_\.mux_top_ipin_0\.sky130_fd_sc_hd__mux2_1_7_X
*402 cbx_1__8_\.cbx_1__8_\.mux_top_ipin_0\.sky130_fd_sc_hd__mux2_1_8_X
*403 cbx_1__8_\.cbx_1__8_\.mux_top_ipin_0\.sky130_fd_sc_hd__mux2_1_9_X
*404 cbx_1__8_\.cbx_1__8_\.mux_top_ipin_1\.sky130_fd_sc_hd__mux2_1_0_X
*405 cbx_1__8_\.cbx_1__8_\.mux_top_ipin_1\.sky130_fd_sc_hd__mux2_1_1_X
*406 cbx_1__8_\.cbx_1__8_\.mux_top_ipin_1\.sky130_fd_sc_hd__mux2_1_2_X
*407 cbx_1__8_\.cbx_1__8_\.mux_top_ipin_1\.sky130_fd_sc_hd__mux2_1_3_X
*408 cbx_1__8_\.cbx_1__8_\.mux_top_ipin_1\.sky130_fd_sc_hd__mux2_1_4_X
*409 cbx_1__8_\.cbx_1__8_\.mux_top_ipin_1\.sky130_fd_sc_hd__mux2_1_5_X
*410 cbx_1__8_\.cbx_1__8_\.mux_top_ipin_1\.sky130_fd_sc_hd__mux2_1_6_X
*411 cbx_1__8_\.cbx_1__8_\.mux_top_ipin_1\.sky130_fd_sc_hd__mux2_1_7_X
*412 cbx_1__8_\.cbx_1__8_\.mux_top_ipin_1\.sky130_fd_sc_hd__mux2_1_8_X
*413 cbx_1__8_\.cbx_1__8_\.mux_top_ipin_1\.sky130_fd_sc_hd__mux2_1_9_X
*414 cbx_1__8_\.cbx_1__8_\.mux_top_ipin_10\.sky130_fd_sc_hd__mux2_1_0_X
*415 cbx_1__8_\.cbx_1__8_\.mux_top_ipin_10\.sky130_fd_sc_hd__mux2_1_10_X
*416 cbx_1__8_\.cbx_1__8_\.mux_top_ipin_10\.sky130_fd_sc_hd__mux2_1_11_X
*417 cbx_1__8_\.cbx_1__8_\.mux_top_ipin_10\.sky130_fd_sc_hd__mux2_1_1_X
*418 cbx_1__8_\.cbx_1__8_\.mux_top_ipin_10\.sky130_fd_sc_hd__mux2_1_2_X
*419 cbx_1__8_\.cbx_1__8_\.mux_top_ipin_10\.sky130_fd_sc_hd__mux2_1_3_X
*420 cbx_1__8_\.cbx_1__8_\.mux_top_ipin_10\.sky130_fd_sc_hd__mux2_1_4_X
*421 cbx_1__8_\.cbx_1__8_\.mux_top_ipin_10\.sky130_fd_sc_hd__mux2_1_5_X
*422 cbx_1__8_\.cbx_1__8_\.mux_top_ipin_10\.sky130_fd_sc_hd__mux2_1_6_X
*423 cbx_1__8_\.cbx_1__8_\.mux_top_ipin_10\.sky130_fd_sc_hd__mux2_1_7_X
*424 cbx_1__8_\.cbx_1__8_\.mux_top_ipin_10\.sky130_fd_sc_hd__mux2_1_8_X
*425 cbx_1__8_\.cbx_1__8_\.mux_top_ipin_10\.sky130_fd_sc_hd__mux2_1_9_X
*426 cbx_1__8_\.cbx_1__8_\.mux_top_ipin_11\.sky130_fd_sc_hd__mux2_1_0_X
*427 cbx_1__8_\.cbx_1__8_\.mux_top_ipin_11\.sky130_fd_sc_hd__mux2_1_1_X
*428 cbx_1__8_\.cbx_1__8_\.mux_top_ipin_11\.sky130_fd_sc_hd__mux2_1_2_X
*429 cbx_1__8_\.cbx_1__8_\.mux_top_ipin_11\.sky130_fd_sc_hd__mux2_1_3_X
*430 cbx_1__8_\.cbx_1__8_\.mux_top_ipin_11\.sky130_fd_sc_hd__mux2_1_4_X
*431 cbx_1__8_\.cbx_1__8_\.mux_top_ipin_11\.sky130_fd_sc_hd__mux2_1_5_X
*432 cbx_1__8_\.cbx_1__8_\.mux_top_ipin_11\.sky130_fd_sc_hd__mux2_1_6_X
*433 cbx_1__8_\.cbx_1__8_\.mux_top_ipin_11\.sky130_fd_sc_hd__mux2_1_7_X
*434 cbx_1__8_\.cbx_1__8_\.mux_top_ipin_11\.sky130_fd_sc_hd__mux2_1_8_X
*435 cbx_1__8_\.cbx_1__8_\.mux_top_ipin_11\.sky130_fd_sc_hd__mux2_1_9_X
*436 cbx_1__8_\.cbx_1__8_\.mux_top_ipin_12\.sky130_fd_sc_hd__mux2_1_0_X
*437 cbx_1__8_\.cbx_1__8_\.mux_top_ipin_12\.sky130_fd_sc_hd__mux2_1_10_X
*438 cbx_1__8_\.cbx_1__8_\.mux_top_ipin_12\.sky130_fd_sc_hd__mux2_1_11_X
*439 cbx_1__8_\.cbx_1__8_\.mux_top_ipin_12\.sky130_fd_sc_hd__mux2_1_1_X
*440 cbx_1__8_\.cbx_1__8_\.mux_top_ipin_12\.sky130_fd_sc_hd__mux2_1_2_X
*441 cbx_1__8_\.cbx_1__8_\.mux_top_ipin_12\.sky130_fd_sc_hd__mux2_1_3_X
*442 cbx_1__8_\.cbx_1__8_\.mux_top_ipin_12\.sky130_fd_sc_hd__mux2_1_4_X
*443 cbx_1__8_\.cbx_1__8_\.mux_top_ipin_12\.sky130_fd_sc_hd__mux2_1_5_X
*444 cbx_1__8_\.cbx_1__8_\.mux_top_ipin_12\.sky130_fd_sc_hd__mux2_1_6_X
*445 cbx_1__8_\.cbx_1__8_\.mux_top_ipin_12\.sky130_fd_sc_hd__mux2_1_7_X
*446 cbx_1__8_\.cbx_1__8_\.mux_top_ipin_12\.sky130_fd_sc_hd__mux2_1_8_X
*447 cbx_1__8_\.cbx_1__8_\.mux_top_ipin_12\.sky130_fd_sc_hd__mux2_1_9_X
*448 cbx_1__8_\.cbx_1__8_\.mux_top_ipin_13\.sky130_fd_sc_hd__mux2_1_0_X
*449 cbx_1__8_\.cbx_1__8_\.mux_top_ipin_13\.sky130_fd_sc_hd__mux2_1_1_X
*450 cbx_1__8_\.cbx_1__8_\.mux_top_ipin_13\.sky130_fd_sc_hd__mux2_1_2_X
*451 cbx_1__8_\.cbx_1__8_\.mux_top_ipin_13\.sky130_fd_sc_hd__mux2_1_3_X
*452 cbx_1__8_\.cbx_1__8_\.mux_top_ipin_13\.sky130_fd_sc_hd__mux2_1_4_X
*453 cbx_1__8_\.cbx_1__8_\.mux_top_ipin_13\.sky130_fd_sc_hd__mux2_1_5_X
*454 cbx_1__8_\.cbx_1__8_\.mux_top_ipin_13\.sky130_fd_sc_hd__mux2_1_6_X
*455 cbx_1__8_\.cbx_1__8_\.mux_top_ipin_13\.sky130_fd_sc_hd__mux2_1_7_X
*456 cbx_1__8_\.cbx_1__8_\.mux_top_ipin_13\.sky130_fd_sc_hd__mux2_1_8_X
*457 cbx_1__8_\.cbx_1__8_\.mux_top_ipin_13\.sky130_fd_sc_hd__mux2_1_9_X
*458 cbx_1__8_\.cbx_1__8_\.mux_top_ipin_14\.sky130_fd_sc_hd__mux2_1_0_X
*459 cbx_1__8_\.cbx_1__8_\.mux_top_ipin_14\.sky130_fd_sc_hd__mux2_1_10_X
*460 cbx_1__8_\.cbx_1__8_\.mux_top_ipin_14\.sky130_fd_sc_hd__mux2_1_11_X
*461 cbx_1__8_\.cbx_1__8_\.mux_top_ipin_14\.sky130_fd_sc_hd__mux2_1_1_X
*462 cbx_1__8_\.cbx_1__8_\.mux_top_ipin_14\.sky130_fd_sc_hd__mux2_1_2_X
*463 cbx_1__8_\.cbx_1__8_\.mux_top_ipin_14\.sky130_fd_sc_hd__mux2_1_3_X
*464 cbx_1__8_\.cbx_1__8_\.mux_top_ipin_14\.sky130_fd_sc_hd__mux2_1_4_X
*465 cbx_1__8_\.cbx_1__8_\.mux_top_ipin_14\.sky130_fd_sc_hd__mux2_1_5_X
*466 cbx_1__8_\.cbx_1__8_\.mux_top_ipin_14\.sky130_fd_sc_hd__mux2_1_6_X
*467 cbx_1__8_\.cbx_1__8_\.mux_top_ipin_14\.sky130_fd_sc_hd__mux2_1_7_X
*468 cbx_1__8_\.cbx_1__8_\.mux_top_ipin_14\.sky130_fd_sc_hd__mux2_1_8_X
*469 cbx_1__8_\.cbx_1__8_\.mux_top_ipin_14\.sky130_fd_sc_hd__mux2_1_9_X
*470 cbx_1__8_\.cbx_1__8_\.mux_top_ipin_15\.sky130_fd_sc_hd__mux2_1_0_X
*471 cbx_1__8_\.cbx_1__8_\.mux_top_ipin_15\.sky130_fd_sc_hd__mux2_1_1_X
*472 cbx_1__8_\.cbx_1__8_\.mux_top_ipin_15\.sky130_fd_sc_hd__mux2_1_2_X
*473 cbx_1__8_\.cbx_1__8_\.mux_top_ipin_15\.sky130_fd_sc_hd__mux2_1_3_X
*474 cbx_1__8_\.cbx_1__8_\.mux_top_ipin_15\.sky130_fd_sc_hd__mux2_1_4_X
*475 cbx_1__8_\.cbx_1__8_\.mux_top_ipin_15\.sky130_fd_sc_hd__mux2_1_5_X
*476 cbx_1__8_\.cbx_1__8_\.mux_top_ipin_15\.sky130_fd_sc_hd__mux2_1_6_X
*477 cbx_1__8_\.cbx_1__8_\.mux_top_ipin_15\.sky130_fd_sc_hd__mux2_1_7_X
*478 cbx_1__8_\.cbx_1__8_\.mux_top_ipin_15\.sky130_fd_sc_hd__mux2_1_8_X
*479 cbx_1__8_\.cbx_1__8_\.mux_top_ipin_15\.sky130_fd_sc_hd__mux2_1_9_X
*480 cbx_1__8_\.cbx_1__8_\.mux_top_ipin_2\.sky130_fd_sc_hd__mux2_1_0_X
*481 cbx_1__8_\.cbx_1__8_\.mux_top_ipin_2\.sky130_fd_sc_hd__mux2_1_10_X
*482 cbx_1__8_\.cbx_1__8_\.mux_top_ipin_2\.sky130_fd_sc_hd__mux2_1_11_X
*483 cbx_1__8_\.cbx_1__8_\.mux_top_ipin_2\.sky130_fd_sc_hd__mux2_1_1_X
*484 cbx_1__8_\.cbx_1__8_\.mux_top_ipin_2\.sky130_fd_sc_hd__mux2_1_2_X
*485 cbx_1__8_\.cbx_1__8_\.mux_top_ipin_2\.sky130_fd_sc_hd__mux2_1_3_X
*486 cbx_1__8_\.cbx_1__8_\.mux_top_ipin_2\.sky130_fd_sc_hd__mux2_1_4_X
*487 cbx_1__8_\.cbx_1__8_\.mux_top_ipin_2\.sky130_fd_sc_hd__mux2_1_5_X
*488 cbx_1__8_\.cbx_1__8_\.mux_top_ipin_2\.sky130_fd_sc_hd__mux2_1_6_X
*489 cbx_1__8_\.cbx_1__8_\.mux_top_ipin_2\.sky130_fd_sc_hd__mux2_1_7_X
*490 cbx_1__8_\.cbx_1__8_\.mux_top_ipin_2\.sky130_fd_sc_hd__mux2_1_8_X
*491 cbx_1__8_\.cbx_1__8_\.mux_top_ipin_2\.sky130_fd_sc_hd__mux2_1_9_X
*492 cbx_1__8_\.cbx_1__8_\.mux_top_ipin_3\.sky130_fd_sc_hd__mux2_1_0_X
*493 cbx_1__8_\.cbx_1__8_\.mux_top_ipin_3\.sky130_fd_sc_hd__mux2_1_1_X
*494 cbx_1__8_\.cbx_1__8_\.mux_top_ipin_3\.sky130_fd_sc_hd__mux2_1_2_X
*495 cbx_1__8_\.cbx_1__8_\.mux_top_ipin_3\.sky130_fd_sc_hd__mux2_1_3_X
*496 cbx_1__8_\.cbx_1__8_\.mux_top_ipin_3\.sky130_fd_sc_hd__mux2_1_4_X
*497 cbx_1__8_\.cbx_1__8_\.mux_top_ipin_3\.sky130_fd_sc_hd__mux2_1_5_X
*498 cbx_1__8_\.cbx_1__8_\.mux_top_ipin_3\.sky130_fd_sc_hd__mux2_1_6_X
*499 cbx_1__8_\.cbx_1__8_\.mux_top_ipin_3\.sky130_fd_sc_hd__mux2_1_7_X
*500 cbx_1__8_\.cbx_1__8_\.mux_top_ipin_3\.sky130_fd_sc_hd__mux2_1_8_X
*501 cbx_1__8_\.cbx_1__8_\.mux_top_ipin_3\.sky130_fd_sc_hd__mux2_1_9_X
*502 cbx_1__8_\.cbx_1__8_\.mux_top_ipin_4\.sky130_fd_sc_hd__mux2_1_0_X
*503 cbx_1__8_\.cbx_1__8_\.mux_top_ipin_4\.sky130_fd_sc_hd__mux2_1_10_X
*504 cbx_1__8_\.cbx_1__8_\.mux_top_ipin_4\.sky130_fd_sc_hd__mux2_1_11_X
*505 cbx_1__8_\.cbx_1__8_\.mux_top_ipin_4\.sky130_fd_sc_hd__mux2_1_1_X
*506 cbx_1__8_\.cbx_1__8_\.mux_top_ipin_4\.sky130_fd_sc_hd__mux2_1_2_X
*507 cbx_1__8_\.cbx_1__8_\.mux_top_ipin_4\.sky130_fd_sc_hd__mux2_1_3_X
*508 cbx_1__8_\.cbx_1__8_\.mux_top_ipin_4\.sky130_fd_sc_hd__mux2_1_4_X
*509 cbx_1__8_\.cbx_1__8_\.mux_top_ipin_4\.sky130_fd_sc_hd__mux2_1_5_X
*510 cbx_1__8_\.cbx_1__8_\.mux_top_ipin_4\.sky130_fd_sc_hd__mux2_1_6_X
*511 cbx_1__8_\.cbx_1__8_\.mux_top_ipin_4\.sky130_fd_sc_hd__mux2_1_7_X
*512 cbx_1__8_\.cbx_1__8_\.mux_top_ipin_4\.sky130_fd_sc_hd__mux2_1_8_X
*513 cbx_1__8_\.cbx_1__8_\.mux_top_ipin_4\.sky130_fd_sc_hd__mux2_1_9_X
*514 cbx_1__8_\.cbx_1__8_\.mux_top_ipin_5\.sky130_fd_sc_hd__mux2_1_0_X
*515 cbx_1__8_\.cbx_1__8_\.mux_top_ipin_5\.sky130_fd_sc_hd__mux2_1_1_X
*516 cbx_1__8_\.cbx_1__8_\.mux_top_ipin_5\.sky130_fd_sc_hd__mux2_1_2_X
*517 cbx_1__8_\.cbx_1__8_\.mux_top_ipin_5\.sky130_fd_sc_hd__mux2_1_3_X
*518 cbx_1__8_\.cbx_1__8_\.mux_top_ipin_5\.sky130_fd_sc_hd__mux2_1_4_X
*519 cbx_1__8_\.cbx_1__8_\.mux_top_ipin_5\.sky130_fd_sc_hd__mux2_1_5_X
*520 cbx_1__8_\.cbx_1__8_\.mux_top_ipin_5\.sky130_fd_sc_hd__mux2_1_6_X
*521 cbx_1__8_\.cbx_1__8_\.mux_top_ipin_5\.sky130_fd_sc_hd__mux2_1_7_X
*522 cbx_1__8_\.cbx_1__8_\.mux_top_ipin_5\.sky130_fd_sc_hd__mux2_1_8_X
*523 cbx_1__8_\.cbx_1__8_\.mux_top_ipin_5\.sky130_fd_sc_hd__mux2_1_9_X
*524 cbx_1__8_\.cbx_1__8_\.mux_top_ipin_6\.sky130_fd_sc_hd__mux2_1_0_X
*525 cbx_1__8_\.cbx_1__8_\.mux_top_ipin_6\.sky130_fd_sc_hd__mux2_1_10_X
*526 cbx_1__8_\.cbx_1__8_\.mux_top_ipin_6\.sky130_fd_sc_hd__mux2_1_11_X
*527 cbx_1__8_\.cbx_1__8_\.mux_top_ipin_6\.sky130_fd_sc_hd__mux2_1_1_X
*528 cbx_1__8_\.cbx_1__8_\.mux_top_ipin_6\.sky130_fd_sc_hd__mux2_1_2_X
*529 cbx_1__8_\.cbx_1__8_\.mux_top_ipin_6\.sky130_fd_sc_hd__mux2_1_3_X
*530 cbx_1__8_\.cbx_1__8_\.mux_top_ipin_6\.sky130_fd_sc_hd__mux2_1_4_X
*531 cbx_1__8_\.cbx_1__8_\.mux_top_ipin_6\.sky130_fd_sc_hd__mux2_1_5_X
*532 cbx_1__8_\.cbx_1__8_\.mux_top_ipin_6\.sky130_fd_sc_hd__mux2_1_6_X
*533 cbx_1__8_\.cbx_1__8_\.mux_top_ipin_6\.sky130_fd_sc_hd__mux2_1_7_X
*534 cbx_1__8_\.cbx_1__8_\.mux_top_ipin_6\.sky130_fd_sc_hd__mux2_1_8_X
*535 cbx_1__8_\.cbx_1__8_\.mux_top_ipin_6\.sky130_fd_sc_hd__mux2_1_9_X
*536 cbx_1__8_\.cbx_1__8_\.mux_top_ipin_7\.sky130_fd_sc_hd__mux2_1_0_X
*537 cbx_1__8_\.cbx_1__8_\.mux_top_ipin_7\.sky130_fd_sc_hd__mux2_1_1_X
*538 cbx_1__8_\.cbx_1__8_\.mux_top_ipin_7\.sky130_fd_sc_hd__mux2_1_2_X
*539 cbx_1__8_\.cbx_1__8_\.mux_top_ipin_7\.sky130_fd_sc_hd__mux2_1_3_X
*540 cbx_1__8_\.cbx_1__8_\.mux_top_ipin_7\.sky130_fd_sc_hd__mux2_1_4_X
*541 cbx_1__8_\.cbx_1__8_\.mux_top_ipin_7\.sky130_fd_sc_hd__mux2_1_5_X
*542 cbx_1__8_\.cbx_1__8_\.mux_top_ipin_7\.sky130_fd_sc_hd__mux2_1_6_X
*543 cbx_1__8_\.cbx_1__8_\.mux_top_ipin_7\.sky130_fd_sc_hd__mux2_1_7_X
*544 cbx_1__8_\.cbx_1__8_\.mux_top_ipin_7\.sky130_fd_sc_hd__mux2_1_8_X
*545 cbx_1__8_\.cbx_1__8_\.mux_top_ipin_7\.sky130_fd_sc_hd__mux2_1_9_X
*546 cbx_1__8_\.cbx_1__8_\.mux_top_ipin_8\.sky130_fd_sc_hd__mux2_1_0_X
*547 cbx_1__8_\.cbx_1__8_\.mux_top_ipin_8\.sky130_fd_sc_hd__mux2_1_10_X
*548 cbx_1__8_\.cbx_1__8_\.mux_top_ipin_8\.sky130_fd_sc_hd__mux2_1_11_X
*549 cbx_1__8_\.cbx_1__8_\.mux_top_ipin_8\.sky130_fd_sc_hd__mux2_1_1_X
*550 cbx_1__8_\.cbx_1__8_\.mux_top_ipin_8\.sky130_fd_sc_hd__mux2_1_2_X
*551 cbx_1__8_\.cbx_1__8_\.mux_top_ipin_8\.sky130_fd_sc_hd__mux2_1_3_X
*552 cbx_1__8_\.cbx_1__8_\.mux_top_ipin_8\.sky130_fd_sc_hd__mux2_1_4_X
*553 cbx_1__8_\.cbx_1__8_\.mux_top_ipin_8\.sky130_fd_sc_hd__mux2_1_5_X
*554 cbx_1__8_\.cbx_1__8_\.mux_top_ipin_8\.sky130_fd_sc_hd__mux2_1_6_X
*555 cbx_1__8_\.cbx_1__8_\.mux_top_ipin_8\.sky130_fd_sc_hd__mux2_1_7_X
*556 cbx_1__8_\.cbx_1__8_\.mux_top_ipin_8\.sky130_fd_sc_hd__mux2_1_8_X
*557 cbx_1__8_\.cbx_1__8_\.mux_top_ipin_8\.sky130_fd_sc_hd__mux2_1_9_X
*558 cbx_1__8_\.cbx_1__8_\.mux_top_ipin_9\.sky130_fd_sc_hd__mux2_1_0_X
*559 cbx_1__8_\.cbx_1__8_\.mux_top_ipin_9\.sky130_fd_sc_hd__mux2_1_1_X
*560 cbx_1__8_\.cbx_1__8_\.mux_top_ipin_9\.sky130_fd_sc_hd__mux2_1_2_X
*561 cbx_1__8_\.cbx_1__8_\.mux_top_ipin_9\.sky130_fd_sc_hd__mux2_1_3_X
*562 cbx_1__8_\.cbx_1__8_\.mux_top_ipin_9\.sky130_fd_sc_hd__mux2_1_4_X
*563 cbx_1__8_\.cbx_1__8_\.mux_top_ipin_9\.sky130_fd_sc_hd__mux2_1_5_X
*564 cbx_1__8_\.cbx_1__8_\.mux_top_ipin_9\.sky130_fd_sc_hd__mux2_1_6_X
*565 cbx_1__8_\.cbx_1__8_\.mux_top_ipin_9\.sky130_fd_sc_hd__mux2_1_7_X
*566 cbx_1__8_\.cbx_1__8_\.mux_top_ipin_9\.sky130_fd_sc_hd__mux2_1_8_X
*567 cbx_1__8_\.cbx_1__8_\.mux_top_ipin_9\.sky130_fd_sc_hd__mux2_1_9_X
*568 cbx_1__8_\.grid_io_top_top_1__9_\.logical_tile_io_mode_io__0\.ccff_tail
*569 cbx_1__8_\.grid_io_top_top_1__9_\.logical_tile_io_mode_io__0\.gfpga_pad_io_soc_dir
*570 cbx_1__8_\.grid_io_top_top_1__9_\.logical_tile_io_mode_io__0\.gfpga_pad_io_soc_out
*571 cbx_1__8_\.grid_io_top_top_1__9_\.logical_tile_io_mode_io__0\.logical_tile_io_mode_physical__iopad_0\.io_0_\.SOC_DIR_N
*572 cbx_1__8_\.grid_io_top_top_1__9_\.logical_tile_io_mode_io__1\.ccff_tail
*573 cbx_1__8_\.grid_io_top_top_1__9_\.logical_tile_io_mode_io__1\.gfpga_pad_io_soc_dir
*574 cbx_1__8_\.grid_io_top_top_1__9_\.logical_tile_io_mode_io__1\.gfpga_pad_io_soc_out
*575 cbx_1__8_\.grid_io_top_top_1__9_\.logical_tile_io_mode_io__1\.logical_tile_io_mode_physical__iopad_0\.io_0_\.SOC_DIR_N
*576 cbx_1__8_\.grid_io_top_top_1__9_\.logical_tile_io_mode_io__2\.ccff_tail