*SPEF "ieee 1481-1999"
*DESIGN "bottom_tile"
*DATE "11:11:11 Fri 11 11, 1111"
*VENDOR "OpenRCX"
*PROGRAM "Parallel Extraction"
*VERSION "1.0"
*DESIGN_FLOW "NAME_SCOPE LOCAL" "PIN_CAP NONE"
*DIVIDER /
*DELIMITER :
*BUS_DELIMITER []
*T_UNIT 1 NS
*C_UNIT 1 PF
*R_UNIT 1 OHM
*L_UNIT 1 HENRY

*NAME_MAP
*3 ccff_head
*4 ccff_head_1
*5 ccff_tail
*6 ccff_tail_0
*7 chanx_left_in[0]
*8 chanx_left_in[10]
*9 chanx_left_in[11]
*10 chanx_left_in[12]
*11 chanx_left_in[13]
*12 chanx_left_in[14]
*13 chanx_left_in[15]
*14 chanx_left_in[16]
*15 chanx_left_in[17]
*16 chanx_left_in[18]
*17 chanx_left_in[19]
*18 chanx_left_in[1]
*19 chanx_left_in[20]
*20 chanx_left_in[21]
*21 chanx_left_in[22]
*22 chanx_left_in[23]
*23 chanx_left_in[24]
*24 chanx_left_in[25]
*25 chanx_left_in[26]
*26 chanx_left_in[27]
*27 chanx_left_in[28]
*28 chanx_left_in[29]
*29 chanx_left_in[2]
*30 chanx_left_in[3]
*31 chanx_left_in[4]
*32 chanx_left_in[5]
*33 chanx_left_in[6]
*34 chanx_left_in[7]
*35 chanx_left_in[8]
*36 chanx_left_in[9]
*37 chanx_left_out[0]
*38 chanx_left_out[10]
*39 chanx_left_out[11]
*40 chanx_left_out[12]
*41 chanx_left_out[13]
*42 chanx_left_out[14]
*43 chanx_left_out[15]
*44 chanx_left_out[16]
*45 chanx_left_out[17]
*46 chanx_left_out[18]
*47 chanx_left_out[19]
*48 chanx_left_out[1]
*49 chanx_left_out[20]
*50 chanx_left_out[21]
*51 chanx_left_out[22]
*52 chanx_left_out[23]
*53 chanx_left_out[24]
*54 chanx_left_out[25]
*55 chanx_left_out[26]
*56 chanx_left_out[27]
*57 chanx_left_out[28]
*58 chanx_left_out[29]
*59 chanx_left_out[2]
*60 chanx_left_out[3]
*61 chanx_left_out[4]
*62 chanx_left_out[5]
*63 chanx_left_out[6]
*64 chanx_left_out[7]
*65 chanx_left_out[8]
*66 chanx_left_out[9]
*67 chanx_right_in_0[0]
*68 chanx_right_in_0[10]
*69 chanx_right_in_0[11]
*70 chanx_right_in_0[12]
*71 chanx_right_in_0[13]
*72 chanx_right_in_0[14]
*73 chanx_right_in_0[15]
*74 chanx_right_in_0[16]
*75 chanx_right_in_0[17]
*76 chanx_right_in_0[18]
*77 chanx_right_in_0[19]
*78 chanx_right_in_0[1]
*79 chanx_right_in_0[20]
*80 chanx_right_in_0[21]
*81 chanx_right_in_0[22]
*82 chanx_right_in_0[23]
*83 chanx_right_in_0[24]
*84 chanx_right_in_0[25]
*85 chanx_right_in_0[26]
*86 chanx_right_in_0[27]
*87 chanx_right_in_0[28]
*88 chanx_right_in_0[29]
*89 chanx_right_in_0[2]
*90 chanx_right_in_0[3]
*91 chanx_right_in_0[4]
*92 chanx_right_in_0[5]
*93 chanx_right_in_0[6]
*94 chanx_right_in_0[7]
*95 chanx_right_in_0[8]
*96 chanx_right_in_0[9]
*97 chanx_right_out_0[0]
*98 chanx_right_out_0[10]
*99 chanx_right_out_0[11]
*100 chanx_right_out_0[12]
*101 chanx_right_out_0[13]
*102 chanx_right_out_0[14]
*103 chanx_right_out_0[15]
*104 chanx_right_out_0[16]
*105 chanx_right_out_0[17]
*106 chanx_right_out_0[18]
*107 chanx_right_out_0[19]
*108 chanx_right_out_0[1]
*109 chanx_right_out_0[20]
*110 chanx_right_out_0[21]
*111 chanx_right_out_0[22]
*112 chanx_right_out_0[23]
*113 chanx_right_out_0[24]
*114 chanx_right_out_0[25]
*115 chanx_right_out_0[26]
*116 chanx_right_out_0[27]
*117 chanx_right_out_0[28]
*118 chanx_right_out_0[29]
*119 chanx_right_out_0[2]
*120 chanx_right_out_0[3]
*121 chanx_right_out_0[4]
*122 chanx_right_out_0[5]
*123 chanx_right_out_0[6]
*124 chanx_right_out_0[7]
*125 chanx_right_out_0[8]
*126 chanx_right_out_0[9]
*127 chany_top_in[0]
*128 chany_top_in[10]
*129 chany_top_in[11]
*130 chany_top_in[12]
*131 chany_top_in[13]
*132 chany_top_in[14]
*133 chany_top_in[15]
*134 chany_top_in[16]
*135 chany_top_in[17]
*136 chany_top_in[18]
*137 chany_top_in[19]
*138 chany_top_in[1]
*139 chany_top_in[20]
*140 chany_top_in[21]
*141 chany_top_in[22]
*142 chany_top_in[23]
*143 chany_top_in[24]
*144 chany_top_in[25]
*145 chany_top_in[26]
*146 chany_top_in[27]
*147 chany_top_in[28]
*148 chany_top_in[29]
*149 chany_top_in[2]
*150 chany_top_in[3]
*151 chany_top_in[4]
*152 chany_top_in[5]
*153 chany_top_in[6]
*154 chany_top_in[7]
*155 chany_top_in[8]
*156 chany_top_in[9]
*157 chany_top_out[0]
*158 chany_top_out[10]
*159 chany_top_out[11]
*160 chany_top_out[12]
*161 chany_top_out[13]
*162 chany_top_out[14]
*163 chany_top_out[15]
*164 chany_top_out[16]
*165 chany_top_out[17]
*166 chany_top_out[18]
*167 chany_top_out[19]
*168 chany_top_out[1]
*169 chany_top_out[20]
*170 chany_top_out[21]
*171 chany_top_out[22]
*172 chany_top_out[23]
*173 chany_top_out[24]
*174 chany_top_out[25]
*175 chany_top_out[26]
*176 chany_top_out[27]
*177 chany_top_out[28]
*178 chany_top_out[29]
*179 chany_top_out[2]
*180 chany_top_out[3]
*181 chany_top_out[4]
*182 chany_top_out[5]
*183 chany_top_out[6]
*184 chany_top_out[7]
*185 chany_top_out[8]
*186 chany_top_out[9]
*187 gfpga_pad_io_soc_dir[0]
*188 gfpga_pad_io_soc_dir[1]
*189 gfpga_pad_io_soc_dir[2]
*190 gfpga_pad_io_soc_dir[3]
*191 gfpga_pad_io_soc_in[0]
*192 gfpga_pad_io_soc_in[1]
*193 gfpga_pad_io_soc_in[2]
*194 gfpga_pad_io_soc_in[3]
*195 gfpga_pad_io_soc_out[0]
*196 gfpga_pad_io_soc_out[1]
*197 gfpga_pad_io_soc_out[2]
*198 gfpga_pad_io_soc_out[3]
*199 isol_n
*200 prog_clk
*201 prog_reset
*202 reset
*203 right_bottom_grid_top_width_0_height_0_subtile_0__pin_inpad_0_
*204 right_bottom_grid_top_width_0_height_0_subtile_1__pin_inpad_0_
*205 right_bottom_grid_top_width_0_height_0_subtile_2__pin_inpad_0_
*206 right_bottom_grid_top_width_0_height_0_subtile_3__pin_inpad_0_
*207 test_enable
*208 top_left_grid_right_width_0_height_0_subtile_0__pin_O_10_
*209 top_left_grid_right_width_0_height_0_subtile_0__pin_O_11_
*210 top_left_grid_right_width_0_height_0_subtile_0__pin_O_12_
*211 top_left_grid_right_width_0_height_0_subtile_0__pin_O_13_
*212 top_left_grid_right_width_0_height_0_subtile_0__pin_O_14_
*213 top_left_grid_right_width_0_height_0_subtile_0__pin_O_15_
*214 top_left_grid_right_width_0_height_0_subtile_0__pin_O_8_
*215 top_left_grid_right_width_0_height_0_subtile_0__pin_O_9_
*216 top_width_0_height_0_subtile_0__pin_inpad_0_
*217 top_width_0_height_0_subtile_1__pin_inpad_0_
*218 top_width_0_height_0_subtile_2__pin_inpad_0_
*219 top_width_0_height_0_subtile_3__pin_inpad_0_
*220 cbx_1__0_\.bottom_grid_top_width_0_height_0_subtile_0__pin_outpad_0_
*221 cbx_1__0_\.bottom_grid_top_width_0_height_0_subtile_1__pin_outpad_0_
*222 cbx_1__0_\.bottom_grid_top_width_0_height_0_subtile_2__pin_outpad_0_
*223 cbx_1__0_\.bottom_grid_top_width_0_height_0_subtile_3__pin_outpad_0_
*224 cbx_1__0_\.cbx_8__0_\.ccff_head
*225 cbx_1__0_\.cbx_8__0_\.mem_top_ipin_0\.ccff_tail
*226 cbx_1__0_\.cbx_8__0_\.mem_top_ipin_0\.mem_out\[0\]
*227 cbx_1__0_\.cbx_8__0_\.mem_top_ipin_0\.mem_out\[1\]
*228 cbx_1__0_\.cbx_8__0_\.mem_top_ipin_0\.mem_out\[2\]
*229 cbx_1__0_\.cbx_8__0_\.mem_top_ipin_1\.ccff_tail
*230 cbx_1__0_\.cbx_8__0_\.mem_top_ipin_1\.mem_out\[0\]
*231 cbx_1__0_\.cbx_8__0_\.mem_top_ipin_1\.mem_out\[1\]
*232 cbx_1__0_\.cbx_8__0_\.mem_top_ipin_1\.mem_out\[2\]
*233 cbx_1__0_\.cbx_8__0_\.mem_top_ipin_2\.ccff_tail
*234 cbx_1__0_\.cbx_8__0_\.mem_top_ipin_2\.mem_out\[0\]
*235 cbx_1__0_\.cbx_8__0_\.mem_top_ipin_2\.mem_out\[1\]
*236 cbx_1__0_\.cbx_8__0_\.mem_top_ipin_2\.mem_out\[2\]
*237 cbx_1__0_\.cbx_8__0_\.mem_top_ipin_3\.mem_out\[0\]
*238 cbx_1__0_\.cbx_8__0_\.mem_top_ipin_3\.mem_out\[1\]
*239 cbx_1__0_\.cbx_8__0_\.mem_top_ipin_3\.mem_out\[2\]
*240 cbx_1__0_\.cbx_8__0_\.mux_top_ipin_0\.sky130_fd_sc_hd__mux2_1_0_X
*241 cbx_1__0_\.cbx_8__0_\.mux_top_ipin_0\.sky130_fd_sc_hd__mux2_1_10_X
*242 cbx_1__0_\.cbx_8__0_\.mux_top_ipin_0\.sky130_fd_sc_hd__mux2_1_11_X
*243 cbx_1__0_\.cbx_8__0_\.mux_top_ipin_0\.sky130_fd_sc_hd__mux2_1_1_X
*244 cbx_1__0_\.cbx_8__0_\.mux_top_ipin_0\.sky130_fd_sc_hd__mux2_1_2_X
*245 cbx_1__0_\.cbx_8__0_\.mux_top_ipin_0\.sky130_fd_sc_hd__mux2_1_3_X
*246 cbx_1__0_\.cbx_8__0_\.mux_top_ipin_0\.sky130_fd_sc_hd__mux2_1_4_X
*247 cbx_1__0_\.cbx_8__0_\.mux_top_ipin_0\.sky130_fd_sc_hd__mux2_1_5_X
*248 cbx_1__0_\.cbx_8__0_\.mux_top_ipin_0\.sky130_fd_sc_hd__mux2_1_6_X
*249 cbx_1__0_\.cbx_8__0_\.mux_top_ipin_0\.sky130_fd_sc_hd__mux2_1_7_X
*250 cbx_1__0_\.cbx_8__0_\.mux_top_ipin_0\.sky130_fd_sc_hd__mux2_1_8_X
*251 cbx_1__0_\.cbx_8__0_\.mux_top_ipin_0\.sky130_fd_sc_hd__mux2_1_9_X
*252 cbx_1__0_\.cbx_8__0_\.mux_top_ipin_1\.sky130_fd_sc_hd__mux2_1_0_X
*253 cbx_1__0_\.cbx_8__0_\.mux_top_ipin_1\.sky130_fd_sc_hd__mux2_1_10_X
*254 cbx_1__0_\.cbx_8__0_\.mux_top_ipin_1\.sky130_fd_sc_hd__mux2_1_11_X
*255 cbx_1__0_\.cbx_8__0_\.mux_top_ipin_1\.sky130_fd_sc_hd__mux2_1_1_X
*256 cbx_1__0_\.cbx_8__0_\.mux_top_ipin_1\.sky130_fd_sc_hd__mux2_1_2_X
*257 cbx_1__0_\.cbx_8__0_\.mux_top_ipin_1\.sky130_fd_sc_hd__mux2_1_3_X
*258 cbx_1__0_\.cbx_8__0_\.mux_top_ipin_1\.sky130_fd_sc_hd__mux2_1_4_X
*259 cbx_1__0_\.cbx_8__0_\.mux_top_ipin_1\.sky130_fd_sc_hd__mux2_1_5_X
*260 cbx_1__0_\.cbx_8__0_\.mux_top_ipin_1\.sky130_fd_sc_hd__mux2_1_6_X
*261 cbx_1__0_\.cbx_8__0_\.mux_top_ipin_1\.sky130_fd_sc_hd__mux2_1_7_X
*262 cbx_1__0_\.cbx_8__0_\.mux_top_ipin_1\.sky130_fd_sc_hd__mux2_1_8_X
*263 cbx_1__0_\.cbx_8__0_\.mux_top_ipin_1\.sky130_fd_sc_hd__mux2_1_9_X
*264 cbx_1__0_\.cbx_8__0_\.mux_top_ipin_2\.sky130_fd_sc_hd__mux2_1_0_X
*265 cbx_1__0_\.cbx_8__0_\.mux_top_ipin_2\.sky130_fd_sc_hd__mux2_1_10_X
*266 cbx_1__0_\.cbx_8__0_\.mux_top_ipin_2\.sky130_fd_sc_hd__mux2_1_11_X
*267 cbx_1__0_\.cbx_8__0_\.mux_top_ipin_2\.sky130_fd_sc_hd__mux2_1_1_X
*268 cbx_1__0_\.cbx_8__0_\.mux_top_ipin_2\.sky130_fd_sc_hd__mux2_1_2_X
*269 cbx_1__0_\.cbx_8__0_\.mux_top_ipin_2\.sky130_fd_sc_hd__mux2_1_3_X
*270 cbx_1__0_\.cbx_8__0_\.mux_top_ipin_2\.sky130_fd_sc_hd__mux2_1_4_X
*271 cbx_1__0_\.cbx_8__0_\.mux_top_ipin_2\.sky130_fd_sc_hd__mux2_1_5_X
*272 cbx_1__0_\.cbx_8__0_\.mux_top_ipin_2\.sky130_fd_sc_hd__mux2_1_6_X
*273 cbx_1__0_\.cbx_8__0_\.mux_top_ipin_2\.sky130_fd_sc_hd__mux2_1_7_X
*274 cbx_1__0_\.cbx_8__0_\.mux_top_ipin_2\.sky130_fd_sc_hd__mux2_1_8_X
*275 cbx_1__0_\.cbx_8__0_\.mux_top_ipin_2\.sky130_fd_sc_hd__mux2_1_9_X
*276 cbx_1__0_\.cbx_8__0_\.mux_top_ipin_3\.sky130_fd_sc_hd__mux2_1_0_X
*277 cbx_1__0_\.cbx_8__0_\.mux_top_ipin_3\.sky130_fd_sc_hd__mux2_1_10_X
*278 cbx_1__0_\.cbx_8__0_\.mux_top_ipin_3\.sky130_fd_sc_hd__mux2_1_11_X
*279 cbx_1__0_\.cbx_8__0_\.mux_top_ipin_3\.sky130_fd_sc_hd__mux2_1_1_X
*280 cbx_1__0_\.cbx_8__0_\.mux_top_ipin_3\.sky130_fd_sc_hd__mux2_1_2_X
*281 cbx_1__0_\.cbx_8__0_\.mux_top_ipin_3\.sky130_fd_sc_hd__mux2_1_3_X
*282 cbx_1__0_\.cbx_8__0_\.mux_top_ipin_3\.sky130_fd_sc_hd__mux2_1_4_X
*283 cbx_1__0_\.cbx_8__0_\.mux_top_ipin_3\.sky130_fd_sc_hd__mux2_1_5_X
*284 cbx_1__0_\.cbx_8__0_\.mux_top_ipin_3\.sky130_fd_sc_hd__mux2_1_6_X
*285 cbx_1__0_\.cbx_8__0_\.mux_top_ipin_3\.sky130_fd_sc_hd__mux2_1_7_X
*286 cbx_1__0_\.cbx_8__0_\.mux_top_ipin_3\.sky130_fd_sc_hd__mux2_1_8_X
*287 cbx_1__0_\.cbx_8__0_\.mux_top_ipin_3\.sky130_fd_sc_hd__mux2_1_9_X
*288 cbx_1__0_\.grid_io_bottom_bottom_8__0_\.logical_tile_io_mode_io__0\.ccff_tail
*289 cbx_1__0_\.grid_io_bottom_bottom_8__0_\.logical_tile_io_mode_io__0\.gfpga_pad_io_soc_dir
*290 cbx_1__0_\.grid_io_bottom_bottom_8__0_\.logical_tile_io_mode_io__0\.logical_tile_io_mode_physical__iopad_0\.io_0_\.SOC_DIR_N
*291 cbx_1__0_\.grid_io_bottom_bottom_8__0_\.logical_tile_io_mode_io__1\.ccff_tail
*292 cbx_1__0_\.grid_io_bottom_bottom_8__0_\.logical_tile_io_mode_io__1\.gfpga_pad_io_soc_dir
*293 cbx_1__0_\.grid_io_bottom_bottom_8__0_\.logical_tile_io_mode_io__1\.logical_tile_io_mode_physical__iopad_0\.io_0_\.SOC_DIR_N
*294 cbx_1__0_\.grid_io_bottom_bottom_8__0_\.logical_tile_io_mode_io__2\.ccff_tail
*295 cbx_1__0_\.grid_io_bottom_bottom_8__0_\.logical_tile_io_mode_io__2\.gfpga_pad_io_soc_dir
*296 cbx_1__0_\.grid_io_bottom_bottom_8__0_\.logical_tile_io_mode_io__2\.logical_tile_io_mode_physical__iopad_0\.io_0_\.SOC_DIR_N
*297 cbx_1__0_\.grid_io_bottom_bottom_8__0_\.logical_tile_io_mode_io__3\.gfpga_pad_io_soc_dir
*298 cbx_1__0_\.grid_io_bottom_bottom_8__0_\.logical_tile_io_mode_io__3\.logical_tile_io_mode_physical__iopad_0\.io_0_\.SOC_DIR_N
*299 clknet_0_prog_clk
*300 clknet_4_0_0_prog_clk
*301 clknet_4_10_0_prog_clk
*302 clknet_4_11_0_prog_clk
*303 clknet_4_12_0_prog_clk
*304 clknet_4_13_0_prog_clk
*305 clknet_4_14_0_prog_clk
*306 clknet_4_15_0_prog_clk
*307 clknet_4_1_0_prog_clk
*308 clknet_4_2_0_prog_clk
*309 clknet_4_3_0_prog_clk
*310 clknet_4_4_0_prog_clk
*311 clknet_4_5_0_prog_clk
*312 clknet_4_6_0_prog_clk
*313 clknet_4_7_0_prog_clk
*314 clknet_4_8_0_prog_clk
*315 clknet_4_9_0_prog_clk
*316 net1
*317 net10
*318 net100
*319 net101
*320 net102
*321 net103
*322 net104
*323 net105
*324 net106
*325 net107
*326 net108
*327 net109
*328 net11
*329 net110
*330 net111
*331 net112
*332 net113
*333 net114
*334 net115
*335 net116
*336 net117
*337 net118
*338 net119
*339 net12
*340 net120
*341 net121
*342 net122
*343 net123
*344 net124
*345 net125
*346 net126
*347 net127
*348 net128
*349 net129
*350 net13
*351 net130
*352 net131
*353 net132
*354 net133
*355 net134
*356 net135
*357 net136
*358 net137
*359 net138
*360 net139
*361 net14
*362 net140
*363 net141
*364 net142
*365 net143
*366 net144
*367 net145
*368 net146
*369 net147
*370 net148
*371 net149
*372 net15
*373 net150
*374 net151
*375 net152
*376 net153
*377 net154
*378 net155
*379 net156
*380 net157
*381 net158
*382 net159
*383 net16
*384 net160
*385 net161
*386 net162
*387 net163
*388 net164
*389 net165
*390 net166
*391 net167
*392 net168
*393 net169
*394 net17
*395 net170
*396 net171
*397 net172
*398 net173
*399 net174
*400 net175
*401 net176
*402 net177
*403 net178
*404 net179
*405 net18
*406 net180
*407 net181
*408 net182
*409 net183
*410 net184
*411 net185
*412 net186
*413 net187
*414 net188
*415 net189
*416 net19
*417 net190
*418 net191
*419 net192
*420 net193
*421 net194
*422 net195
*423 net196
*424 net197
*425 net198
*426 net199
*427 net2
*428 net20
*429 net200
*430 net201
*431 net202
*432 net203
*433 net204
*434 net205
*435 net206
*436 net207
*437 net208
*438 net209
*439 net21
*440 net210
*441 net211
*442 net212
*443 net213
*444 net214
*445 net215
*446 net216
*447 net217
*448 net218
*449 net219
*450 net22
*451 net220
*452 net221
*453 net222
*454 net223
*455 net224
*456 net225
*457 net226
*458 net227
*459 net228
*460 net229
*461 net23
*462 net230
*463 net231
*464 net232
*465 net233
*466 net234
*467 net235
*468 net236
*469 net237
*470 net238
*471 net239
*472 net24
*473 net240
*474 net241
*475 net242
*476 net243
*477 net244
*478 net245
*479 net246
*480 net247
*481 net248
*482 net249
*483 net25
*484 net250
*485 net251
*486 net252
*487 net253
*488 net254
*489 net255
*490 net256
*491 net257
*492 net258
*493 net259
*494 net26
*495 net260
*496 net261
*497 net262
*498 net263
*499 net264
*500 net265
*501 net266
*502 net267
*503 net268
*504 net269
*505 net27
*506 net270
*507 net271
*508 net272
*509 net273
*510 net274
*511 net275
*512 net276
*513 net277
*514 net278
*515 net279
*516 net28
*517 net280
*518 net281
*519 net282
*520 net283
*521 net284
*522 net285
*523 net286
*524 net287
*525 net288
*526 net289
*527 net29
*528 net290
*529 net291
*530 net292
*531 net293
*532 net294
*533 net295
*534 net296
*535 net297
*536 net298
*537 net299
*538 net3
*539 net30
*540 net300
*541 net301
*542 net302
*543 net303
*544 net304
*545 net305
*546 net306
*547 net307
*548 net308
*549 net309
*550 net31
*551 net310
*552 net311
*553 net312
*554 net313
*555 net314
*556 net315
*557 net316
*558 net317
*559 net318
*560 net319
*561 net32
*562 net320
*563 net321
*564 net322
*565 net323
*566 net324
*567 net325
*568 net326
*569 net327
*570 net328
*571 net329
*572 net33
*573 net330
*574 net331
*575 net332
*576 net333
*577 net334
*578 net335
*579 net336
*580 net337
*581 net338
*582 net339
*583 net34
*584 net340
*585 net341
*586 net342
*587 net343
*588 net344
*589 net345
*590 net346
*591 net347
*592 net348
*593 net349
*594 net35
*595 net350
*596 net351
*597 net352
*598 net353
*599 net354
*600 net355
*601 net356
*602 net357
*603 net358
*604 net359
*605 net36
*606 net360
*607 net361
*608 net362
*609 net363
*610 net364
*611 net37
*612 net38
*613 net39
*614 net4
*615 net40
*616 net41
*617 net42
*618 net43
*619 net44
*620 net45
*621 net46
*622 net47
*623 net48
*624 net49
*625 net5
*626 net50
*627 net51
*628 net52
*629 net53
*630 net54
*631 net55
*632 net56
*633 net57
*634 net58
*635 net59
*636 net6
*637 net60
*638 net61
*639 net62
*640 net63
*641 net64
*642 net65
*643 net66
*644 net67
*645 net68
*646 net69
*647 net7
*648 net70
*649 net71
*650 net72
*651 net73
*652 net74
*653 net75
*654 net76
*655 net77
*656 net78
*657 net79
*658 net8
*659 net80
*660 net81
*661 net82
*662 net83
*663 net84
*664 net85
*665 net86
*666 net87
*667 net88
*668 net89
*669 net9
*670 net90
*671 net91
*672 net92
*673 net93
*674 net94
*675 net95
*676 net96
*677 net97
*678 net98
*679 net99
*680 sb_1__0_\.mem_left_track_1\.ccff_head
*681 sb_1__0_\.mem_left_track_1\.ccff_tail
*682 sb_1__0_\.mem_left_track_1\.mem_out\[0\]
*683 sb_1__0_\.mem_left_track_1\.mem_out\[1\]
*684 sb_1__0_\.mem_left_track_11\.ccff_head
*685 sb_1__0_\.mem_left_track_11\.ccff_tail
*686 sb_1__0_\.mem_left_track_11\.mem_out\[0\]
*687 sb_1__0_\.mem_left_track_11\.mem_out\[1\]
*688 sb_1__0_\.mem_left_track_13\.ccff_tail
*689 sb_1__0_\.mem_left_track_13\.mem_out\[0\]
*690 sb_1__0_\.mem_left_track_13\.mem_out\[1\]
*691 sb_1__0_\.mem_left_track_21\.ccff_tail
*692 sb_1__0_\.mem_left_track_21\.mem_out\[0\]
*693 sb_1__0_\.mem_left_track_21\.mem_out\[1\]
*694 sb_1__0_\.mem_left_track_29\.ccff_tail
*695 sb_1__0_\.mem_left_track_29\.mem_out\[0\]
*696 sb_1__0_\.mem_left_track_29\.mem_out\[1\]
*697 sb_1__0_\.mem_left_track_3\.ccff_tail
*698 sb_1__0_\.mem_left_track_3\.mem_out\[0\]
*699 sb_1__0_\.mem_left_track_3\.mem_out\[1\]
*700 sb_1__0_\.mem_left_track_37\.ccff_tail
*701 sb_1__0_\.mem_left_track_37\.mem_out\[0\]
*702 sb_1__0_\.mem_left_track_37\.mem_out\[1\]
*703 sb_1__0_\.mem_left_track_45\.ccff_tail
*704 sb_1__0_\.mem_left_track_45\.mem_out\[0\]
*705 sb_1__0_\.mem_left_track_45\.mem_out\[1\]
*706 sb_1__0_\.mem_left_track_5\.ccff_tail
*707 sb_1__0_\.mem_left_track_5\.mem_out\[0\]
*708 sb_1__0_\.mem_left_track_5\.mem_out\[1\]
*709 sb_1__0_\.mem_left_track_53\.mem_out\[0\]
*710 sb_1__0_\.mem_left_track_53\.mem_out\[1\]
*711 sb_1__0_\.mem_left_track_7\.mem_out\[0\]
*712 sb_1__0_\.mem_left_track_7\.mem_out\[1\]
*713 sb_1__0_\.mem_right_track_0\.ccff_head
*714 sb_1__0_\.mem_right_track_0\.ccff_tail
*715 sb_1__0_\.mem_right_track_0\.mem_out\[0\]
*716 sb_1__0_\.mem_right_track_0\.mem_out\[1\]
*717 sb_1__0_\.mem_right_track_10\.ccff_head
*718 sb_1__0_\.mem_right_track_10\.ccff_tail
*719 sb_1__0_\.mem_right_track_10\.mem_out\[0\]
*720 sb_1__0_\.mem_right_track_10\.mem_out\[1\]
*721 sb_1__0_\.mem_right_track_12\.ccff_tail
*722 sb_1__0_\.mem_right_track_12\.mem_out\[0\]
*723 sb_1__0_\.mem_right_track_12\.mem_out\[1\]
*724 sb_1__0_\.mem_right_track_2\.ccff_tail
*725 sb_1__0_\.mem_right_track_2\.mem_out\[0\]
*726 sb_1__0_\.mem_right_track_2\.mem_out\[1\]
*727 sb_1__0_\.mem_right_track_20\.ccff_tail
*728 sb_1__0_\.mem_right_track_20\.mem_out\[0\]
*729 sb_1__0_\.mem_right_track_20\.mem_out\[1\]
*730 sb_1__0_\.mem_right_track_28\.ccff_tail
*731 sb_1__0_\.mem_right_track_28\.mem_out\[0\]
*732 sb_1__0_\.mem_right_track_28\.mem_out\[1\]
*733 sb_1__0_\.mem_right_track_36\.ccff_tail
*734 sb_1__0_\.mem_right_track_36\.mem_out\[0\]
*735 sb_1__0_\.mem_right_track_36\.mem_out\[1\]
*736 sb_1__0_\.mem_right_track_4\.ccff_tail
*737 sb_1__0_\.mem_right_track_4\.mem_out\[0\]
*738 sb_1__0_\.mem_right_track_4\.mem_out\[1\]
*739 sb_1__0_\.mem_right_track_44\.ccff_tail
*740 sb_1__0_\.mem_right_track_44\.mem_out\[0\]
*741 sb_1__0_\.mem_right_track_52\.mem_out\[0\]
*742 sb_1__0_\.mem_right_track_6\.mem_out\[0\]
*743 sb_1__0_\.mem_right_track_6\.mem_out\[1\]
*744 sb_1__0_\.mem_top_track_0\.ccff_tail
*745 sb_1__0_\.mem_top_track_0\.mem_out\[0\]
*746 sb_1__0_\.mem_top_track_0\.mem_out\[1\]
*747 sb_1__0_\.mem_top_track_10\.ccff_head
*748 sb_1__0_\.mem_top_track_10\.ccff_tail
*749 sb_1__0_\.mem_top_track_10\.mem_out\[0\]
*750 sb_1__0_\.mem_top_track_10\.mem_out\[1\]
*751 sb_1__0_\.mem_top_track_12\.ccff_tail
*752 sb_1__0_\.mem_top_track_12\.mem_out\[0\]
*753 sb_1__0_\.mem_top_track_12\.mem_out\[1\]
*754 sb_1__0_\.mem_top_track_14\.ccff_tail
*755 sb_1__0_\.mem_top_track_14\.mem_out\[0\]
*756 sb_1__0_\.mem_top_track_14\.mem_out\[1\]
*757 sb_1__0_\.mem_top_track_16\.ccff_tail
*758 sb_1__0_\.mem_top_track_16\.mem_out\[0\]
*759 sb_1__0_\.mem_top_track_16\.mem_out\[1\]
*760 sb_1__0_\.mem_top_track_18\.ccff_tail
*761 sb_1__0_\.mem_top_track_18\.mem_out\[0\]
*762 sb_1__0_\.mem_top_track_18\.mem_out\[1\]
*763 sb_1__0_\.mem_top_track_2\.ccff_tail
*764 sb_1__0_\.mem_top_track_2\.mem_out\[0\]
*765 sb_1__0_\.mem_top_track_2\.mem_out\[1\]
*766 sb_1__0_\.mem_top_track_20\.ccff_tail
*767 sb_1__0_\.mem_top_track_20\.mem_out\[0\]
*768 sb_1__0_\.mem_top_track_22\.ccff_tail
*769 sb_1__0_\.mem_top_track_22\.mem_out\[0\]
*770 sb_1__0_\.mem_top_track_24\.ccff_tail
*771 sb_1__0_\.mem_top_track_24\.mem_out\[0\]
*772 sb_1__0_\.mem_top_track_26\.ccff_tail
*773 sb_1__0_\.mem_top_track_26\.mem_out\[0\]
*774 sb_1__0_\.mem_top_track_28\.ccff_tail
*775 sb_1__0_\.mem_top_track_28\.mem_out\[0\]
*776 sb_1__0_\.mem_top_track_30\.ccff_tail
*777 sb_1__0_\.mem_top_track_30\.mem_out\[0\]
*778 sb_1__0_\.mem_top_track_32\.ccff_tail
*779 sb_1__0_\.mem_top_track_32\.mem_out\[0\]
*780 sb_1__0_\.mem_top_track_34\.ccff_tail
*781 sb_1__0_\.mem_top_track_34\.mem_out\[0\]
*782 sb_1__0_\.mem_top_track_36\.ccff_tail
*783 sb_1__0_\.mem_top_track_36\.mem_out\[0\]
*784 sb_1__0_\.mem_top_track_4\.ccff_tail
*785 sb_1__0_\.mem_top_track_4\.mem_out\[0\]
*786 sb_1__0_\.mem_top_track_4\.mem_out\[1\]
*787 sb_1__0_\.mem_top_track_40\.ccff_tail
*788 sb_1__0_\.mem_top_track_40\.mem_out\[0\]
*789 sb_1__0_\.mem_top_track_42\.ccff_tail
*790 sb_1__0_\.mem_top_track_42\.mem_out\[0\]
*791 sb_1__0_\.mem_top_track_44\.ccff_tail
*792 sb_1__0_\.mem_top_track_44\.mem_out\[0\]
*793 sb_1__0_\.mem_top_track_46\.ccff_tail
*794 sb_1__0_\.mem_top_track_46\.mem_out\[0\]
*795 sb_1__0_\.mem_top_track_48\.ccff_tail
*796 sb_1__0_\.mem_top_track_48\.mem_out\[0\]
*797 sb_1__0_\.mem_top_track_50\.ccff_tail
*798 sb_1__0_\.mem_top_track_50\.mem_out\[0\]
*799 sb_1__0_\.mem_top_track_58\.mem_out\[0\]
*800 sb_1__0_\.mem_top_track_6\.ccff_tail
*801 sb_1__0_\.mem_top_track_6\.mem_out\[0\]
*802 sb_1__0_\.mem_top_track_6\.mem_out\[1\]
*803 sb_1__0_\.mem_top_track_8\.mem_out\[0\]
*804 sb_1__0_\.mem_top_track_8\.mem_out\[1\]
*805 sb_1__0_\.mux_left_track_1\.out
*806 sb_1__0_\.mux_left_track_1\.sky130_fd_sc_hd__mux2_1_0_X
*807 sb_1__0_\.mux_left_track_1\.sky130_fd_sc_hd__mux2_1_1_X
*808 sb_1__0_\.mux_left_track_1\.sky130_fd_sc_hd__mux2_1_2_X
*809 sb_1__0_\.mux_left_track_1\.sky130_fd_sc_hd__mux2_1_3_X
*810 sb_1__0_\.mux_left_track_1\.sky130_fd_sc_hd__mux2_1_4_X
*811 sb_1__0_\.mux_left_track_1\.sky130_fd_sc_hd__mux2_1_5_X
*812 sb_1__0_\.mux_left_track_1\.sky130_fd_sc_hd__mux2_1_6_X
*813 sb_1__0_\.mux_left_track_11\.out
*814 sb_1__0_\.mux_left_track_11\.sky130_fd_sc_hd__mux2_1_0_X
*815 sb_1__0_\.mux_left_track_11\.sky130_fd_sc_hd__mux2_1_1_X
*816 sb_1__0_\.mux_left_track_11\.sky130_fd_sc_hd__mux2_1_2_X
*817 sb_1__0_\.mux_left_track_11\.sky130_fd_sc_hd__mux2_1_3_X
*818 sb_1__0_\.mux_left_track_11\.sky130_fd_sc_hd__mux2_1_4_X
*819 sb_1__0_\.mux_left_track_11\.sky130_fd_sc_hd__mux2_1_5_X
*820 sb_1__0_\.mux_left_track_11\.sky130_fd_sc_hd__mux2_1_6_X
*821 sb_1__0_\.mux_left_track_13\.out
*822 sb_1__0_\.mux_left_track_13\.sky130_fd_sc_hd__mux2_1_0_X
*823 sb_1__0_\.mux_left_track_13\.sky130_fd_sc_hd__mux2_1_1_X
*824 sb_1__0_\.mux_left_track_13\.sky130_fd_sc_hd__mux2_1_2_X
*825 sb_1__0_\.mux_left_track_13\.sky130_fd_sc_hd__mux2_1_3_X
*826 sb_1__0_\.mux_left_track_13\.sky130_fd_sc_hd__mux2_1_4_X
*827 sb_1__0_\.mux_left_track_13\.sky130_fd_sc_hd__mux2_1_5_X
*828 sb_1__0_\.mux_left_track_21\.out
*829 sb_1__0_\.mux_left_track_21\.sky130_fd_sc_hd__mux2_1_0_X
*830 sb_1__0_\.mux_left_track_21\.sky130_fd_sc_hd__mux2_1_1_X
*831 sb_1__0_\.mux_left_track_21\.sky130_fd_sc_hd__mux2_1_2_X
*832 sb_1__0_\.mux_left_track_21\.sky130_fd_sc_hd__mux2_1_3_X
*833 sb_1__0_\.mux_left_track_21\.sky130_fd_sc_hd__mux2_1_4_X
*834 sb_1__0_\.mux_left_track_21\.sky130_fd_sc_hd__mux2_1_5_X
*835 sb_1__0_\.mux_left_track_29\.out
*836 sb_1__0_\.mux_left_track_29\.sky130_fd_sc_hd__mux2_1_0_X
*837 sb_1__0_\.mux_left_track_29\.sky130_fd_sc_hd__mux2_1_1_X
*838 sb_1__0_\.mux_left_track_29\.sky130_fd_sc_hd__mux2_1_2_X
*839 sb_1__0_\.mux_left_track_29\.sky130_fd_sc_hd__mux2_1_3_X
*840 sb_1__0_\.mux_left_track_29\.sky130_fd_sc_hd__mux2_1_4_X
*841 sb_1__0_\.mux_left_track_29\.sky130_fd_sc_hd__mux2_1_5_X
*842 sb_1__0_\.mux_left_track_3\.out
*843 sb_1__0_\.mux_left_track_3\.sky130_fd_sc_hd__mux2_1_0_X
*844 sb_1__0_\.mux_left_track_3\.sky130_fd_sc_hd__mux2_1_1_X
*845 sb_1__0_\.mux_left_track_3\.sky130_fd_sc_hd__mux2_1_2_X
*846 sb_1__0_\.mux_left_track_3\.sky130_fd_sc_hd__mux2_1_3_X
*847 sb_1__0_\.mux_left_track_3\.sky130_fd_sc_hd__mux2_1_4_X
*848 sb_1__0_\.mux_left_track_37\.out
*849 sb_1__0_\.mux_left_track_37\.sky130_fd_sc_hd__mux2_1_0_X
*850 sb_1__0_\.mux_left_track_37\.sky130_fd_sc_hd__mux2_1_1_X
*851 sb_1__0_\.mux_left_track_37\.sky130_fd_sc_hd__mux2_1_2_X
*852 sb_1__0_\.mux_left_track_37\.sky130_fd_sc_hd__mux2_1_3_X
*853 sb_1__0_\.mux_left_track_37\.sky130_fd_sc_hd__mux2_1_4_X
*854 sb_1__0_\.mux_left_track_45\.out
*855 sb_1__0_\.mux_left_track_45\.sky130_fd_sc_hd__mux2_1_0_X
*856 sb_1__0_\.mux_left_track_45\.sky130_fd_sc_hd__mux2_1_1_X
*857 sb_1__0_\.mux_left_track_45\.sky130_fd_sc_hd__mux2_1_2_X
*858 sb_1__0_\.mux_left_track_45\.sky130_fd_sc_hd__mux2_1_3_X
*859 sb_1__0_\.mux_left_track_5\.out
*860 sb_1__0_\.mux_left_track_5\.sky130_fd_sc_hd__mux2_1_0_X
*861 sb_1__0_\.mux_left_track_5\.sky130_fd_sc_hd__mux2_1_1_X
*862 sb_1__0_\.mux_left_track_5\.sky130_fd_sc_hd__mux2_1_2_X
*863 sb_1__0_\.mux_left_track_5\.sky130_fd_sc_hd__mux2_1_3_X
*864 sb_1__0_\.mux_left_track_5\.sky130_fd_sc_hd__mux2_1_4_X
*865 sb_1__0_\.mux_left_track_53\.out
*866 sb_1__0_\.mux_left_track_53\.sky130_fd_sc_hd__mux2_1_0_X
*867 sb_1__0_\.mux_left_track_53\.sky130_fd_sc_hd__mux2_1_1_X
*868 sb_1__0_\.mux_left_track_53\.sky130_fd_sc_hd__mux2_1_2_X
*869 sb_1__0_\.mux_left_track_53\.sky130_fd_sc_hd__mux2_1_3_X
*870 sb_1__0_\.mux_left_track_7\.out
*871 sb_1__0_\.mux_left_track_7\.sky130_fd_sc_hd__mux2_1_0_X
*872 sb_1__0_\.mux_left_track_7\.sky130_fd_sc_hd__mux2_1_1_X
*873 sb_1__0_\.mux_left_track_7\.sky130_fd_sc_hd__mux2_1_2_X
*874 sb_1__0_\.mux_left_track_7\.sky130_fd_sc_hd__mux2_1_3_X
*875 sb_1__0_\.mux_left_track_7\.sky130_fd_sc_hd__mux2_1_4_X
*876 sb_1__0_\.mux_left_track_7\.sky130_fd_sc_hd__mux2_1_5_X
*877 sb_1__0_\.mux_right_track_0\.out
*878 sb_1__0_\.mux_right_track_0\.sky130_fd_sc_hd__mux2_1_0_X
*879 sb_1__0_\.mux_right_track_0\.sky130_fd_sc_hd__mux2_1_1_X
*880 sb_1__0_\.mux_right_track_0\.sky130_fd_sc_hd__mux2_1_2_X
*881 sb_1__0_\.mux_right_track_0\.sky130_fd_sc_hd__mux2_1_3_X
*882 sb_1__0_\.mux_right_track_0\.sky130_fd_sc_hd__mux2_1_4_X
*883 sb_1__0_\.mux_right_track_0\.sky130_fd_sc_hd__mux2_1_5_X
*884 sb_1__0_\.mux_right_track_10\.out
*885 sb_1__0_\.mux_right_track_10\.sky130_fd_sc_hd__mux2_1_0_X
*886 sb_1__0_\.mux_right_track_10\.sky130_fd_sc_hd__mux2_1_1_X
*887 sb_1__0_\.mux_right_track_10\.sky130_fd_sc_hd__mux2_1_2_X
*888 sb_1__0_\.mux_right_track_10\.sky130_fd_sc_hd__mux2_1_3_X
*889 sb_1__0_\.mux_right_track_10\.sky130_fd_sc_hd__mux2_1_4_X
*890 sb_1__0_\.mux_right_track_10\.sky130_fd_sc_hd__mux2_1_5_X
*891 sb_1__0_\.mux_right_track_10\.sky130_fd_sc_hd__mux2_1_6_X
*892 sb_1__0_\.mux_right_track_12\.out
*893 sb_1__0_\.mux_right_track_12\.sky130_fd_sc_hd__mux2_1_0_X
*894 sb_1__0_\.mux_right_track_12\.sky130_fd_sc_hd__mux2_1_1_X
*895 sb_1__0_\.mux_right_track_12\.sky130_fd_sc_hd__mux2_1_2_X
*896 sb_1__0_\.mux_right_track_12\.sky130_fd_sc_hd__mux2_1_3_X
*897 sb_1__0_\.mux_right_track_12\.sky130_fd_sc_hd__mux2_1_4_X
*898 sb_1__0_\.mux_right_track_12\.sky130_fd_sc_hd__mux2_1_5_X
*899 sb_1__0_\.mux_right_track_2\.out
*900 sb_1__0_\.mux_right_track_2\.sky130_fd_sc_hd__mux2_1_0_X
*901 sb_1__0_\.mux_right_track_2\.sky130_fd_sc_hd__mux2_1_1_X
*902 sb_1__0_\.mux_right_track_2\.sky130_fd_sc_hd__mux2_1_2_X
*903 sb_1__0_\.mux_right_track_2\.sky130_fd_sc_hd__mux2_1_3_X
*904 sb_1__0_\.mux_right_track_2\.sky130_fd_sc_hd__mux2_1_4_X
*905 sb_1__0_\.mux_right_track_2\.sky130_fd_sc_hd__mux2_1_5_X
*906 sb_1__0_\.mux_right_track_20\.out
*907 sb_1__0_\.mux_right_track_20\.sky130_fd_sc_hd__mux2_1_0_X
*908 sb_1__0_\.mux_right_track_20\.sky130_fd_sc_hd__mux2_1_1_X
*909 sb_1__0_\.mux_right_track_20\.sky130_fd_sc_hd__mux2_1_2_X
*910 sb_1__0_\.mux_right_track_20\.sky130_fd_sc_hd__mux2_1_3_X
*911 sb_1__0_\.mux_right_track_20\.sky130_fd_sc_hd__mux2_1_4_X
*912 sb_1__0_\.mux_right_track_20\.sky130_fd_sc_hd__mux2_1_5_X
*913 sb_1__0_\.mux_right_track_28\.out
*914 sb_1__0_\.mux_right_track_28\.sky130_fd_sc_hd__mux2_1_0_X
*915 sb_1__0_\.mux_right_track_28\.sky130_fd_sc_hd__mux2_1_1_X
*916 sb_1__0_\.mux_right_track_28\.sky130_fd_sc_hd__mux2_1_2_X
*917 sb_1__0_\.mux_right_track_28\.sky130_fd_sc_hd__mux2_1_3_X
*918 sb_1__0_\.mux_right_track_28\.sky130_fd_sc_hd__mux2_1_4_X
*919 sb_1__0_\.mux_right_track_28\.sky130_fd_sc_hd__mux2_1_5_X
*920 sb_1__0_\.mux_right_track_36\.out
*921 sb_1__0_\.mux_right_track_36\.sky130_fd_sc_hd__mux2_1_0_X
*922 sb_1__0_\.mux_right_track_36\.sky130_fd_sc_hd__mux2_1_1_X
*923 sb_1__0_\.mux_right_track_36\.sky130_fd_sc_hd__mux2_1_2_X
*924 sb_1__0_\.mux_right_track_36\.sky130_fd_sc_hd__mux2_1_3_X
*925 sb_1__0_\.mux_right_track_36\.sky130_fd_sc_hd__mux2_1_4_X
*926 sb_1__0_\.mux_right_track_4\.out
*927 sb_1__0_\.mux_right_track_4\.sky130_fd_sc_hd__mux2_1_0_X
*928 sb_1__0_\.mux_right_track_4\.sky130_fd_sc_hd__mux2_1_1_X
*929 sb_1__0_\.mux_right_track_4\.sky130_fd_sc_hd__mux2_1_2_X
*930 sb_1__0_\.mux_right_track_4\.sky130_fd_sc_hd__mux2_1_3_X
*931 sb_1__0_\.mux_right_track_4\.sky130_fd_sc_hd__mux2_1_4_X
*932 sb_1__0_\.mux_right_track_4\.sky130_fd_sc_hd__mux2_1_5_X
*933 sb_1__0_\.mux_right_track_44\.out
*934 sb_1__0_\.mux_right_track_44\.sky130_fd_sc_hd__mux2_1_0_X
*935 sb_1__0_\.mux_right_track_44\.sky130_fd_sc_hd__mux2_1_1_X
*936 sb_1__0_\.mux_right_track_44\.sky130_fd_sc_hd__mux2_1_2_X
*937 sb_1__0_\.mux_right_track_52\.out
*938 sb_1__0_\.mux_right_track_52\.sky130_fd_sc_hd__mux2_1_0_X
*939 sb_1__0_\.mux_right_track_52\.sky130_fd_sc_hd__mux2_1_1_X
*940 sb_1__0_\.mux_right_track_52\.sky130_fd_sc_hd__mux2_1_2_X