*SPEF "ieee 1481-1999"
*DESIGN "bottom_tile"
*DATE "11:11:11 Fri 11 11, 1111"
*VENDOR "OpenRCX"
*PROGRAM "Parallel Extraction"
*VERSION "1.0"
*DESIGN_FLOW "NAME_SCOPE LOCAL" "PIN_CAP NONE"
*DIVIDER /
*DELIMITER :
*BUS_DELIMITER []
*T_UNIT 1 NS
*C_UNIT 1 PF
*R_UNIT 1 OHM
*L_UNIT 1 HENRY

*NAME_MAP
*3 ccff_head
*4 ccff_head_1
*5 ccff_tail
*6 ccff_tail_0
*7 chanx_left_in[0]
*8 chanx_left_in[10]
*9 chanx_left_in[11]
*10 chanx_left_in[12]
*11 chanx_left_in[13]
*12 chanx_left_in[14]
*13 chanx_left_in[15]
*14 chanx_left_in[16]
*15 chanx_left_in[17]
*16 chanx_left_in[18]
*17 chanx_left_in[19]
*18 chanx_left_in[1]
*19 chanx_left_in[20]
*20 chanx_left_in[21]
*21 chanx_left_in[22]
*22 chanx_left_in[23]
*23 chanx_left_in[24]
*24 chanx_left_in[25]
*25 chanx_left_in[26]
*26 chanx_left_in[27]
*27 chanx_left_in[28]
*28 chanx_left_in[29]
*29 chanx_left_in[2]
*30 chanx_left_in[3]
*31 chanx_left_in[4]
*32 chanx_left_in[5]
*33 chanx_left_in[6]
*34 chanx_left_in[7]
*35 chanx_left_in[8]
*36 chanx_left_in[9]
*37 chanx_left_out[0]
*38 chanx_left_out[10]
*39 chanx_left_out[11]
*40 chanx_left_out[12]
*41 chanx_left_out[13]
*42 chanx_left_out[14]
*43 chanx_left_out[15]
*44 chanx_left_out[16]
*45 chanx_left_out[17]
*46 chanx_left_out[18]
*47 chanx_left_out[19]
*48 chanx_left_out[1]
*49 chanx_left_out[20]
*50 chanx_left_out[21]
*51 chanx_left_out[22]
*52 chanx_left_out[23]
*53 chanx_left_out[24]
*54 chanx_left_out[25]
*55 chanx_left_out[26]
*56 chanx_left_out[27]
*57 chanx_left_out[28]
*58 chanx_left_out[29]
*59 chanx_left_out[2]
*60 chanx_left_out[3]
*61 chanx_left_out[4]
*62 chanx_left_out[5]
*63 chanx_left_out[6]
*64 chanx_left_out[7]
*65 chanx_left_out[8]
*66 chanx_left_out[9]
*67 chanx_right_in_0[0]
*68 chanx_right_in_0[10]
*69 chanx_right_in_0[11]
*70 chanx_right_in_0[12]
*71 chanx_right_in_0[13]
*72 chanx_right_in_0[14]
*73 chanx_right_in_0[15]
*74 chanx_right_in_0[16]
*75 chanx_right_in_0[17]
*76 chanx_right_in_0[18]
*77 chanx_right_in_0[19]
*78 chanx_right_in_0[1]
*79 chanx_right_in_0[20]
*80 chanx_right_in_0[21]
*81 chanx_right_in_0[22]
*82 chanx_right_in_0[23]
*83 chanx_right_in_0[24]
*84 chanx_right_in_0[25]
*85 chanx_right_in_0[26]
*86 chanx_right_in_0[27]
*87 chanx_right_in_0[28]
*88 chanx_right_in_0[29]
*89 chanx_right_in_0[2]
*90 chanx_right_in_0[3]
*91 chanx_right_in_0[4]
*92 chanx_right_in_0[5]
*93 chanx_right_in_0[6]
*94 chanx_right_in_0[7]
*95 chanx_right_in_0[8]
*96 chanx_right_in_0[9]
*97 chanx_right_out_0[0]
*98 chanx_right_out_0[10]
*99 chanx_right_out_0[11]
*100 chanx_right_out_0[12]
*101 chanx_right_out_0[13]
*102 chanx_right_out_0[14]
*103 chanx_right_out_0[15]
*104 chanx_right_out_0[16]
*105 chanx_right_out_0[17]
*106 chanx_right_out_0[18]
*107 chanx_right_out_0[19]
*108 chanx_right_out_0[1]
*109 chanx_right_out_0[20]
*110 chanx_right_out_0[21]
*111 chanx_right_out_0[22]
*112 chanx_right_out_0[23]
*113 chanx_right_out_0[24]
*114 chanx_right_out_0[25]
*115 chanx_right_out_0[26]
*116 chanx_right_out_0[27]
*117 chanx_right_out_0[28]
*118 chanx_right_out_0[29]
*119 chanx_right_out_0[2]
*120 chanx_right_out_0[3]
*121 chanx_right_out_0[4]
*122 chanx_right_out_0[5]
*123 chanx_right_out_0[6]
*124 chanx_right_out_0[7]
*125 chanx_right_out_0[8]
*126 chanx_right_out_0[9]
*127 chany_top_in[0]
*128 chany_top_in[10]
*129 chany_top_in[11]
*130 chany_top_in[12]
*131 chany_top_in[13]
*132 chany_top_in[14]
*133 chany_top_in[15]
*134 chany_top_in[16]
*135 chany_top_in[17]
*136 chany_top_in[18]
*137 chany_top_in[19]
*138 chany_top_in[1]
*139 chany_top_in[20]
*140 chany_top_in[21]
*141 chany_top_in[22]
*142 chany_top_in[23]
*143 chany_top_in[24]
*144 chany_top_in[25]
*145 chany_top_in[26]
*146 chany_top_in[27]
*147 chany_top_in[28]
*148 chany_top_in[29]
*149 chany_top_in[2]
*150 chany_top_in[3]
*151 chany_top_in[4]
*152 chany_top_in[5]
*153 chany_top_in[6]
*154 chany_top_in[7]
*155 chany_top_in[8]
*156 chany_top_in[9]
*157 chany_top_out[0]
*158 chany_top_out[10]
*159 chany_top_out[11]
*160 chany_top_out[12]
*161 chany_top_out[13]
*162 chany_top_out[14]
*163 chany_top_out[15]
*164 chany_top_out[16]
*165 chany_top_out[17]
*166 chany_top_out[18]
*167 chany_top_out[19]
*168 chany_top_out[1]
*169 chany_top_out[20]
*170 chany_top_out[21]
*171 chany_top_out[22]
*172 chany_top_out[23]
*173 chany_top_out[24]
*174 chany_top_out[25]
*175 chany_top_out[26]
*176 chany_top_out[27]
*177 chany_top_out[28]
*178 chany_top_out[29]
*179 chany_top_out[2]
*180 chany_top_out[3]
*181 chany_top_out[4]
*182 chany_top_out[5]
*183 chany_top_out[6]
*184 chany_top_out[7]
*185 chany_top_out[8]
*186 chany_top_out[9]
*187 gfpga_pad_io_soc_dir[0]
*188 gfpga_pad_io_soc_dir[1]
*189 gfpga_pad_io_soc_dir[2]
*190 gfpga_pad_io_soc_dir[3]
*191 gfpga_pad_io_soc_in[0]
*192 gfpga_pad_io_soc_in[1]
*193 gfpga_pad_io_soc_in[2]
*194 gfpga_pad_io_soc_in[3]
*195 gfpga_pad_io_soc_out[0]
*196 gfpga_pad_io_soc_out[1]
*197 gfpga_pad_io_soc_out[2]
*198 gfpga_pad_io_soc_out[3]
*199 isol_n
*200 prog_clk
*201 prog_reset
*202 reset
*203 right_bottom_grid_top_width_0_height_0_subtile_0__pin_inpad_0_
*204 right_bottom_grid_top_width_0_height_0_subtile_1__pin_inpad_0_
*205 right_bottom_grid_top_width_0_height_0_subtile_2__pin_inpad_0_
*206 right_bottom_grid_top_width_0_height_0_subtile_3__pin_inpad_0_
*207 test_enable
*208 top_left_grid_right_width_0_height_0_subtile_0__pin_O_10_
*209 top_left_grid_right_width_0_height_0_subtile_0__pin_O_11_
*210 top_left_grid_right_width_0_height_0_subtile_0__pin_O_12_
*211 top_left_grid_right_width_0_height_0_subtile_0__pin_O_13_
*212 top_left_grid_right_width_0_height_0_subtile_0__pin_O_14_
*213 top_left_grid_right_width_0_height_0_subtile_0__pin_O_15_
*214 top_left_grid_right_width_0_height_0_subtile_0__pin_O_8_
*215 top_left_grid_right_width_0_height_0_subtile_0__pin_O_9_
*216 top_width_0_height_0_subtile_0__pin_inpad_0_
*217 top_width_0_height_0_subtile_1__pin_inpad_0_
*218 top_width_0_height_0_subtile_2__pin_inpad_0_
*219 top_width_0_height_0_subtile_3__pin_inpad_0_
*220 cbx_1__0_\.bottom_grid_top_width_0_height_0_subtile_0__pin_outpad_0_
*221 cbx_1__0_\.bottom_grid_top_width_0_height_0_subtile_1__pin_outpad_0_
*222 cbx_1__0_\.bottom_grid_top_width_0_height_0_subtile_2__pin_outpad_0_
*223 cbx_1__0_\.bottom_grid_top_width_0_height_0_subtile_3__pin_outpad_0_
*224 cbx_1__0_\.cbx_8__0_\.ccff_head
*225 cbx_1__0_\.cbx_8__0_\.mem_top_ipin_0\.ccff_tail
*226 cbx_1__0_\.cbx_8__0_\.mem_top_ipin_0\.mem_out\[0\]
*227 cbx_1__0_\.cbx_8__0_\.mem_top_ipin_0\.mem_out\[1\]
*228 cbx_1__0_\.cbx_8__0_\.mem_top_ipin_0\.mem_out\[2\]
*229 cbx_1__0_\.cbx_8__0_\.mem_top_ipin_1\.ccff_tail
*230 cbx_1__0_\.cbx_8__0_\.mem_top_ipin_1\.mem_out\[0\]
*231 cbx_1__0_\.cbx_8__0_\.mem_top_ipin_1\.mem_out\[1\]
*232 cbx_1__0_\.cbx_8__0_\.mem_top_ipin_1\.mem_out\[2\]
*233 cbx_1__0_\.cbx_8__0_\.mem_top_ipin_2\.ccff_tail
*234 cbx_1__0_\.cbx_8__0_\.mem_top_ipin_2\.mem_out\[0\]
*235 cbx_1__0_\.cbx_8__0_\.mem_top_ipin_2\.mem_out\[1\]
*236 cbx_1__0_\.cbx_8__0_\.mem_top_ipin_2\.mem_out\[2\]
*237 cbx_1__0_\.cbx_8__0_\.mem_top_ipin_3\.mem_out\[0\]
*238 cbx_1__0_\.cbx_8__0_\.mem_top_ipin_3\.mem_out\[1\]
*239 cbx_1__0_\.cbx_8__0_\.mem_top_ipin_3\.mem_out\[2\]
*240 cbx_1__0_\.cbx_8__0_\.mux_top_ipin_0\.sky130_fd_sc_hd__mux2_1_0_X
*241 cbx_1__0_\.cbx_8__0_\.mux_top_ipin_0\.sky130_fd_sc_hd__mux2_1_10_X
*242 cbx_1__0_\.cbx_8__0_\.mux_top_ipin_0\.sky130_fd_sc_hd__mux2_1_11_X
*243 cbx_1__0_\.cbx_8__0_\.mux_top_ipin_0\.sky130_fd_sc_hd__mux2_1_1_X
*244 cbx_1__0_\.cbx_8__0_\.mux_top_ipin_0\.sky130_fd_sc_hd__mux2_1_2_X
*245 cbx_1__0_\.cbx_8__0_\.mux_top_ipin_0\.sky130_fd_sc_hd__mux2_1_3_X
*246 cbx_1__0_\.cbx_8__0_\.mux_top_ipin_0\.sky130_fd_sc_hd__mux2_1_4_X
*247 cbx_1__0_\.cbx_8__0_\.mux_top_ipin_0\.sky130_fd_sc_hd__mux2_1_5_X
*248 cbx_1__0_\.cbx_8__0_\.mux_top_ipin_0\.sky130_fd_sc_hd__mux2_1_6_X
*249 cbx_1__0_\.cbx_8__0_\.mux_top_ipin_0\.sky130_fd_sc_hd__mux2_1_7_X
*250 cbx_1__0_\.cbx_8__0_\.mux_top_ipin_0\.sky130_fd_sc_hd__mux2_1_8_X
*251 cbx_1__0_\.cbx_8__0_\.mux_top_ipin_0\.sky130_fd_sc_hd__mux2_1_9_X
*252 cbx_1__0_\.cbx_8__0_\.mux_top_ipin_1\.sky130_fd_sc_hd__mux2_1_0_X
*253 cbx_1__0_\.cbx_8__0_\.mux_top_ipin_1\.sky130_fd_sc_hd__mux2_1_10_X
*254 cbx_1__0_\.cbx_8__0_\.mux_top_ipin_1\.sky130_fd_sc_hd__mux2_1_11_X
*255 cbx_1__0_\.cbx_8__0_\.mux_top_ipin_1\.sky130_fd_sc_hd__mux2_1_1_X
*256 cbx_1__0_\.cbx_8__0_\.mux_top_ipin_1\.sky130_fd_sc_hd__mux2_1_2_X
*257 cbx_1__0_\.cbx_8__0_\.mux_top_ipin_1\.sky130_fd_sc_hd__mux2_1_3_X
*258 cbx_1__0_\.cbx_8__0_\.mux_top_ipin_1\.sky130_fd_sc_hd__mux2_1_4_X
*259 cbx_1__0_\.cbx_8__0_\.mux_top_ipin_1\.sky130_fd_sc_hd__mux2_1_5_X
*260 cbx_1__0_\.cbx_8__0_\.mux_top_ipin_1\.sky130_fd_sc_hd__mux2_1_6_X
*261 cbx_1__0_\.cbx_8__0_\.mux_top_ipin_1\.sky130_fd_sc_hd__mux2_1_7_X
*262 cbx_1__0_\.cbx_8__0_\.mux_top_ipin_1\.sky130_fd_sc_hd__mux2_1_8_X
*263 cbx_1__0_\.cbx_8__0_\.mux_top_ipin_1\.sky130_fd_sc_hd__mux2_1_9_X
*264 cbx_1__0_\.cbx_8__0_\.mux_top_ipin_2\.sky130_fd_sc_hd__mux2_1_0_X
*265 cbx_1__0_\.cbx_8__0_\.mux_top_ipin_2\.sky130_fd_sc_hd__mux2_1_10_X
*266 cbx_1__0_\.cbx_8__0_\.mux_top_ipin_2\.sky130_fd_sc_hd__mux2_1_11_X
*267 cbx_1__0_\.cbx_8__0_\.mux_top_ipin_2\.sky130_fd_sc_hd__mux2_1_1_X
*268 cbx_1__0_\.cbx_8__0_\.mux_top_ipin_2\.sky130_fd_sc_hd__mux2_1_2_X
*269 cbx_1__0_\.cbx_8__0_\.mux_top_ipin_2\.sky130_fd_sc_hd__mux2_1_3_X
*270 cbx_1__0_\.cbx_8__0_\.mux_top_ipin_2\.sky130_fd_sc_hd__mux2_1_4_X
*271 cbx_1__0_\.cbx_8__0_\.mux_top_ipin_2\.sky130_fd_sc_hd__mux2_1_5_X
*272 cbx_1__0_\.cbx_8__0_\.mux_top_ipin_2\.sky130_fd_sc_hd__mux2_1_6_X
*273 cbx_1__0_\.cbx_8__0_\.mux_top_ipin_2\.sky130_fd_sc_hd__mux2_1_7_X
*274 cbx_1__0_\.cbx_8__0_\.mux_top_ipin_2\.sky130_fd_sc_hd__mux2_1_8_X
*275 cbx_1__0_\.cbx_8__0_\.mux_top_ipin_2\.sky130_fd_sc_hd__mux2_1_9_X
*276 cbx_1__0_\.cbx_8__0_\.mux_top_ipin_3\.sky130_fd_sc_hd__mux2_1_0_X
*277 cbx_1__0_\.cbx_8__0_\.mux_top_ipin_3\.sky130_fd_sc_hd__mux2_1_10_X
*278 cbx_1__0_\.cbx_8__0_\.mux_top_ipin_3\.sky130_fd_sc_hd__mux2_1_11_X
*279 cbx_1__0_\.cbx_8__0_\.mux_top_ipin_3\.sky130_fd_sc_hd__mux2_1_1_X
*280 cbx_1__0_\.cbx_8__0_\.mux_top_ipin_3\.sky130_fd_sc_hd__mux2_1_2_X
*281 cbx_1__0_\.cbx_8__0_\.mux_top_ipin_3\.sky130_fd_sc_hd__mux2_1_3_X
*282 cbx_1__0_\.cbx_8__0_\.mux_top_ipin_3\.sky130_fd_sc_hd__mux2_1_4_X
*283 cbx_1__0_\.cbx_8__0_\.mux_top_ipin_3\.sky130_fd_sc_hd__mux2_1_5_X
*284 cbx_1__0_\.cbx_8__0_\.mux_top_ipin_3\.sky130_fd_sc_hd__mux2_1_6_X
*285 cbx_1__0_\.cbx_8__0_\.mux_top_ipin_3\.sky130_fd_sc_hd__mux2_1_7_X
*286 cbx_1__0_\.cbx_8__0_\.mux_top_ipin_3\.sky130_fd_sc_hd__mux2_1_8_X
*287 cbx_1__0_\.cbx_8__0_\.mux_top_ipin_3\.sky130_fd_sc_hd__mux2_1_9_X
*288 cbx_1__0_\.grid_io_bottom_bottom_8__0_\.logical_tile_io_mode_io__0\.ccff_tail
*289 cbx_1__0_\.grid_io_bottom_bottom_8__0_\.logical_tile_io_mode_io__0\.gfpga_pad_io_soc_dir
*290 cbx_1__0_\.grid_io_bottom_bottom_8__0_\.logical_tile_io_mode_io__0\.gfpga_pad_io_soc_out
*291 cbx_1__0_\.grid_io_bottom_bottom_8__0_\.logical_tile_io_mode_io__0\.logical_tile_io_mode_physical__iopad_0\.io_0_\.SOC_DIR_N
*292 cbx_1__0_\.grid_io_bottom_bottom_8__0_\.logical_tile_io_mode_io__1\.ccff_tail
*293 cbx_1__0_\.grid_io_bottom_bottom_8__0_\.logical_tile_io_mode_io__1\.gfpga_pad_io_soc_dir
*294 cbx_1__0_\.grid_io_bottom_bottom_8__0_\.logical_tile_io_mode_io__1\.gfpga_pad_io_soc_out
*295 cbx_1__0_\.grid_io_bottom_bottom_8__0_\.logical_tile_io_mode_io__1\.logical_tile_io_mode_physical__iopad_0\.io_0_\.SOC_DIR_N
*296 cbx_1__0_\.grid_io_bottom_bottom_8__0_\.logical_tile_io_mode_io__2\.ccff_tail
*297 cbx_1__0_\.grid_io_bottom_bottom_8__0_\.logical_tile_io_mode_io__2\.gfpga_pad_io_soc_dir
*298 cbx_1__0_\.grid_io_bottom_bottom_8__0_\.logical_tile_io_mode_io__2\.gfpga_pad_io_soc_out
*299 cbx_1__0_\.grid_io_bottom_bottom_8__0_\.logical_tile_io_mode_io__2\.logical_tile_io_mode_physical__iopad_0\.io_0_\.SOC_DIR_N
*300 cbx_1__0_\.grid_io_bottom_bottom_8__0_\.logical_tile_io_mode_io__3\.gfpga_pad_io_soc_dir
*301 cbx_1__0_\.grid_io_bottom_bottom_8__0_\.logical_tile_io_mode_io__3\.gfpga_pad_io_soc_out
*302 cbx_1__0_\.grid_io_bottom_bottom_8__0_\.logical_tile_io_mode_io__3\.logical_tile_io_mode_physical__iopad_0\.io_0_\.SOC_DIR_N
*303 clknet_0_prog_clk
*304 clknet_4_0_0_prog_clk
*305 clknet_4_10_0_prog_clk
*306 clknet_4_11_0_prog_clk
*307 clknet_4_12_0_prog_clk
*308 clknet_4_13_0_prog_clk
*309 clknet_4_14_0_prog_clk
*310 clknet_4_15_0_prog_clk
*311 clknet_4_1_0_prog_clk
*312 clknet_4_2_0_prog_clk
*313 clknet_4_3_0_prog_clk
*314 clknet_4_4_0_prog_clk
*315 clknet_4_5_0_prog_clk
*316 clknet_4_6_0_prog_clk
*317 clknet_4_7_0_prog_clk
*318 clknet_4_8_0_prog_clk
*319 clknet_4_9_0_prog_clk
*320 net1
*321 net10
*322 net100
*323 net101
*324 net102
*325 net103
*326 net104
*327 net105
*328 net106
*329 net107
*330 net108
*331 net109
*332 net11
*333 net110
*334 net111
*335 net112
*336 net113
*337 net114
*338 net115
*339 net116
*340 net117
*341 net118
*342 net119
*343 net12
*344 net120
*345 net121
*346 net122
*347 net123
*348 net124
*349 net125
*350 net126
*351 net127
*352 net128
*353 net129
*354 net13
*355 net130
*356 net131
*357 net132
*358 net133
*359 net134
*360 net135
*361 net136
*362 net137
*363 net138
*364 net139
*365 net14
*366 net140
*367 net141
*368 net142
*369 net143
*370 net144
*371 net145
*372 net146
*373 net147
*374 net148
*375 net149
*376 net15
*377 net150
*378 net151
*379 net152
*380 net153
*381 net154
*382 net155
*383 net156
*384 net157
*385 net158
*386 net159
*387 net16
*388 net160
*389 net161
*390 net162
*391 net163
*392 net164
*393 net165
*394 net166
*395 net167
*396 net168
*397 net169
*398 net17
*399 net170
*400 net171
*401 net172
*402 net173
*403 net174
*404 net175
*405 net176
*406 net177
*407 net178
*408 net179
*409 net18
*410 net180
*411 net181
*412 net182
*413 net183
*414 net184
*415 net185
*416 net186
*417 net187
*418 net188
*419 net189
*420 net19
*421 net190
*422 net191
*423 net192
*424 net193
*425 net194
*426 net195
*427 net196
*428 net197
*429 net198
*430 net199
*431 net2
*432 net20
*433 net200
*434 net201
*435 net202
*436 net203
*437 net204
*438 net205
*439 net206
*440 net207
*441 net208
*442 net209
*443 net21
*444 net210
*445 net211
*446 net212
*447 net213
*448 net214
*449 net215
*450 net216
*451 net217
*452 net218
*453 net219
*454 net22
*455 net220
*456 net221
*457 net222
*458 net223
*459 net224
*460 net225
*461 net226
*462 net227
*463 net228
*464 net229
*465 net23
*466 net230
*467 net231
*468 net232
*469 net233
*470 net234
*471 net235
*472 net236
*473 net237
*474 net238
*475 net239
*476 net24
*477 net240
*478 net241
*479 net242
*480 net243
*481 net244
*482 net245
*483 net246
*484 net247
*485 net248
*486 net249
*487 net25
*488 net250
*489 net251
*490 net252
*491 net253
*492 net254
*493 net255
*494 net256
*495 net257
*496 net258
*497 net259
*498 net26
*499 net260
*500 net261
*501 net262
*502 net263
*503 net264
*504 net265
*505 net266
*506 net267
*507 net268
*508 net269
*509 net27
*510 net270
*511 net271
*512 net272
*513 net273
*514 net274
*515 net275
*516 net276
*517 net277
*518 net278
*519 net279
*520 net28
*521 net280
*522 net281
*523 net282
*524 net283
*525 net284
*526 net285
*527 net286
*528 net287
*529 net288
*530 net289
*531 net29
*532 net290
*533 net291
*534 net292
*535 net293
*536 net294
*537 net295
*538 net296
*539 net297
*540 net298
*541 net299
*542 net3
*543 net30
*544 net300
*545 net301
*546 net302
*547 net303
*548 net304
*549 net305
*550 net306
*551 net307
*552 net308
*553 net309
*554 net31
*555 net310
*556 net311
*557 net312
*558 net313
*559 net314
*560 net315
*561 net316
*562 net317
*563 net318
*564 net319
*565 net32
*566 net320
*567 net321
*568 net322
*569 net323
*570 net324
*571 net325
*572 net326
*573 net327
*574 net328
*575 net329
*576 net33
*577 net34
*578 net35
*579 net36
*580 net37
*581 net38
*582 net39
*583 net4
*584 net40
*585 net41
*586 net42
*587 net43
*588 net44
*589 net45
*590 net46
*591 net47
*592 net48
*593 net49
*594 net5
*595 net50
*596 net51
*597 net52
*598 net53
*599 net54
*600 net55
*601 net56
*602 net57
*603 net58
*604 net59
*605 net6
*606 net60
*607 net61
*608 net62
*609 net63
*610 net64
*611 net65
*612 net66
*613 net67
*614 net68
*615 net69
*616 net7
*617 net70
*618 net71
*619 net72
*620 net73
*621 net74
*622 net75
*623 net76
*624 net77
*625 net78
*626 net79
*627 net8
*628 net80
*629 net81
*630 net82
*631 net83
*632 net84
*633 net85
*634 net86
*635 net87
*636 net88
*637 net89
*638 net9
*639 net90
*640 net91
*641 net92
*642 net93
*643 net94
*644 net95
*645 net96
*646 net97
*647 net98
*648 net99
*649 sb_1__0_\.mem_left_track_1\.ccff_head
*650 sb_1__0_\.mem_left_track_1\.ccff_tail
*651 sb_1__0_\.mem_left_track_1\.mem_out\[0\]
*652 sb_1__0_\.mem_left_track_1\.mem_out\[1\]
*653 sb_1__0_\.mem_left_track_11\.ccff_head
*654 sb_1__0_\.mem_left_track_11\.ccff_tail
*655 sb_1__0_\.mem_left_track_11\.mem_out\[0\]
*656 sb_1__0_\.mem_left_track_11\.mem_out\[1\]
*657 sb_1__0_\.mem_left_track_13\.ccff_tail
*658 sb_1__0_\.mem_left_track_13\.mem_out\[0\]
*659 sb_1__0_\.mem_left_track_13\.mem_out\[1\]
*660 sb_1__0_\.mem_left_track_21\.ccff_tail
*661 sb_1__0_\.mem_left_track_21\.mem_out\[0\]
*662 sb_1__0_\.mem_left_track_21\.mem_out\[1\]
*663 sb_1__0_\.mem_left_track_29\.ccff_tail
*664 sb_1__0_\.mem_left_track_29\.mem_out\[0\]
*665 sb_1__0_\.mem_left_track_29\.mem_out\[1\]
*666 sb_1__0_\.mem_left_track_3\.ccff_tail
*667 sb_1__0_\.mem_left_track_3\.mem_out\[0\]
*668 sb_1__0_\.mem_left_track_3\.mem_out\[1\]
*669 sb_1__0_\.mem_left_track_37\.ccff_tail
*670 sb_1__0_\.mem_left_track_37\.mem_out\[0\]
*671 sb_1__0_\.mem_left_track_37\.mem_out\[1\]
*672 sb_1__0_\.mem_left_track_45\.ccff_tail
*673 sb_1__0_\.mem_left_track_45\.mem_out\[0\]
*674 sb_1__0_\.mem_left_track_45\.mem_out\[1\]
*675 sb_1__0_\.mem_left_track_5\.ccff_tail
*676 sb_1__0_\.mem_left_track_5\.mem_out\[0\]
*677 sb_1__0_\.mem_left_track_5\.mem_out\[1\]
*678 sb_1__0_\.mem_left_track_53\.mem_out\[0\]
*679 sb_1__0_\.mem_left_track_53\.mem_out\[1\]
*680 sb_1__0_\.mem_left_track_7\.mem_out\[0\]
*681 sb_1__0_\.mem_left_track_7\.mem_out\[1\]
*682 sb_1__0_\.mem_right_track_0\.ccff_head
*683 sb_1__0_\.mem_right_track_0\.ccff_tail
*684 sb_1__0_\.mem_right_track_0\.mem_out\[0\]
*685 sb_1__0_\.mem_right_track_0\.mem_out\[1\]
*686 sb_1__0_\.mem_right_track_10\.ccff_head
*687 sb_1__0_\.mem_right_track_10\.ccff_tail
*688 sb_1__0_\.mem_right_track_10\.mem_out\[0\]
*689 sb_1__0_\.mem_right_track_10\.mem_out\[1\]
*690 sb_1__0_\.mem_right_track_12\.ccff_tail
*691 sb_1__0_\.mem_right_track_12\.mem_out\[0\]
*692 sb_1__0_\.mem_right_track_12\.mem_out\[1\]
*693 sb_1__0_\.mem_right_track_2\.ccff_tail
*694 sb_1__0_\.mem_right_track_2\.mem_out\[0\]
*695 sb_1__0_\.mem_right_track_2\.mem_out\[1\]
*696 sb_1__0_\.mem_right_track_20\.ccff_tail
*697 sb_1__0_\.mem_right_track_20\.mem_out\[0\]
*698 sb_1__0_\.mem_right_track_20\.mem_out\[1\]
*699 sb_1__0_\.mem_right_track_28\.ccff_tail
*700 sb_1__0_\.mem_right_track_28\.mem_out\[0\]
*701 sb_1__0_\.mem_right_track_28\.mem_out\[1\]
*702 sb_1__0_\.mem_right_track_36\.ccff_tail
*703 sb_1__0_\.mem_right_track_36\.mem_out\[0\]
*704 sb_1__0_\.mem_right_track_36\.mem_out\[1\]
*705 sb_1__0_\.mem_right_track_4\.ccff_tail
*706 sb_1__0_\.mem_right_track_4\.mem_out\[0\]
*707 sb_1__0_\.mem_right_track_4\.mem_out\[1\]
*708 sb_1__0_\.mem_right_track_44\.ccff_tail
*709 sb_1__0_\.mem_right_track_44\.mem_out\[0\]
*710 sb_1__0_\.mem_right_track_52\.mem_out\[0\]
*711 sb_1__0_\.mem_right_track_6\.mem_out\[0\]
*712 sb_1__0_\.mem_right_track_6\.mem_out\[1\]
*713 sb_1__0_\.mem_top_track_0\.ccff_tail
*714 sb_1__0_\.mem_top_track_0\.mem_out\[0\]
*715 sb_1__0_\.mem_top_track_0\.mem_out\[1\]
*716 sb_1__0_\.mem_top_track_10\.ccff_head
*717 sb_1__0_\.mem_top_track_10\.ccff_tail
*718 sb_1__0_\.mem_top_track_10\.mem_out\[0\]
*719 sb_1__0_\.mem_top_track_10\.mem_out\[1\]
*720 sb_1__0_\.mem_top_track_12\.ccff_tail
*721 sb_1__0_\.mem_top_track_12\.mem_out\[0\]
*722 sb_1__0_\.mem_top_track_12\.mem_out\[1\]
*723 sb_1__0_\.mem_top_track_14\.ccff_tail
*724 sb_1__0_\.mem_top_track_14\.mem_out\[0\]
*725 sb_1__0_\.mem_top_track_14\.mem_out\[1\]
*726 sb_1__0_\.mem_top_track_16\.ccff_tail
*727 sb_1__0_\.mem_top_track_16\.mem_out\[0\]
*728 sb_1__0_\.mem_top_track_16\.mem_out\[1\]
*729 sb_1__0_\.mem_top_track_18\.ccff_tail
*730 sb_1__0_\.mem_top_track_18\.mem_out\[0\]
*731 sb_1__0_\.mem_top_track_18\.mem_out\[1\]
*732 sb_1__0_\.mem_top_track_2\.ccff_tail
*733 sb_1__0_\.mem_top_track_2\.mem_out\[0\]
*734 sb_1__0_\.mem_top_track_2\.mem_out\[1\]
*735 sb_1__0_\.mem_top_track_20\.ccff_tail
*736 sb_1__0_\.mem_top_track_20\.mem_out\[0\]
*737 sb_1__0_\.mem_top_track_22\.ccff_tail
*738 sb_1__0_\.mem_top_track_22\.mem_out\[0\]
*739 sb_1__0_\.mem_top_track_24\.ccff_tail
*740 sb_1__0_\.mem_top_track_24\.mem_out\[0\]
*741 sb_1__0_\.mem_top_track_26\.ccff_tail
*742 sb_1__0_\.mem_top_track_26\.mem_out\[0\]
*743 sb_1__0_\.mem_top_track_28\.ccff_tail
*744 sb_1__0_\.mem_top_track_28\.mem_out\[0\]
*745 sb_1__0_\.mem_top_track_30\.ccff_tail
*746 sb_1__0_\.mem_top_track_30\.mem_out\[0\]
*747 sb_1__0_\.mem_top_track_32\.ccff_tail
*748 sb_1__0_\.mem_top_track_32\.mem_out\[0\]
*749 sb_1__0_\.mem_top_track_34\.ccff_tail
*750 sb_1__0_\.mem_top_track_34\.mem_out\[0\]
*751 sb_1__0_\.mem_top_track_36\.ccff_tail
*752 sb_1__0_\.mem_top_track_36\.mem_out\[0\]
*753 sb_1__0_\.mem_top_track_4\.ccff_tail
*754 sb_1__0_\.mem_top_track_4\.mem_out\[0\]
*755 sb_1__0_\.mem_top_track_4\.mem_out\[1\]
*756 sb_1__0_\.mem_top_track_40\.ccff_tail
*757 sb_1__0_\.mem_top_track_40\.mem_out\[0\]
*758 sb_1__0_\.mem_top_track_42\.ccff_tail
*759 sb_1__0_\.mem_top_track_42\.mem_out\[0\]
*760 sb_1__0_\.mem_top_track_44\.ccff_tail
*761 sb_1__0_\.mem_top_track_44\.mem_out\[0\]
*762 sb_1__0_\.mem_top_track_46\.ccff_tail
*763 sb_1__0_\.mem_top_track_46\.mem_out\[0\]
*764 sb_1__0_\.mem_top_track_48\.ccff_tail
*765 sb_1__0_\.mem_top_track_48\.mem_out\[0\]
*766 sb_1__0_\.mem_top_track_50\.ccff_tail
*767 sb_1__0_\.mem_top_track_50\.mem_out\[0\]
*768 sb_1__0_\.mem_top_track_58\.mem_out\[0\]
*769 sb_1__0_\.mem_top_track_6\.ccff_tail
*770 sb_1__0_\.mem_top_track_6\.mem_out\[0\]
*771 sb_1__0_\.mem_top_track_6\.mem_out\[1\]
*772 sb_1__0_\.mem_top_track_8\.mem_out\[0\]
*773 sb_1__0_\.mem_top_track_8\.mem_out\[1\]
*774 sb_1__0_\.mux_left_track_1\.out
*775 sb_1__0_\.mux_left_track_1\.sky130_fd_sc_hd__mux2_1_0_X
*776 sb_1__0_\.mux_left_track_1\.sky130_fd_sc_hd__mux2_1_1_X
*777 sb_1__0_\.mux_left_track_1\.sky130_fd_sc_hd__mux2_1_2_X
*778 sb_1__0_\.mux_left_track_1\.sky130_fd_sc_hd__mux2_1_3_X
*779 sb_1__0_\.mux_left_track_1\.sky130_fd_sc_hd__mux2_1_4_X
*780 sb_1__0_\.mux_left_track_1\.sky130_fd_sc_hd__mux2_1_5_X
*781 sb_1__0_\.mux_left_track_1\.sky130_fd_sc_hd__mux2_1_6_X
*782 sb_1__0_\.mux_left_track_11\.out
*783 sb_1__0_\.mux_left_track_11\.sky130_fd_sc_hd__mux2_1_0_X
*784 sb_1__0_\.mux_left_track_11\.sky130_fd_sc_hd__mux2_1_1_X
*785 sb_1__0_\.mux_left_track_11\.sky130_fd_sc_hd__mux2_1_2_X
*786 sb_1__0_\.mux_left_track_11\.sky130_fd_sc_hd__mux2_1_3_X
*787 sb_1__0_\.mux_left_track_11\.sky130_fd_sc_hd__mux2_1_4_X
*788 sb_1__0_\.mux_left_track_11\.sky130_fd_sc_hd__mux2_1_5_X
*789 sb_1__0_\.mux_left_track_11\.sky130_fd_sc_hd__mux2_1_6_X
*790 sb_1__0_\.mux_left_track_13\.out
*791 sb_1__0_\.mux_left_track_13\.sky130_fd_sc_hd__mux2_1_0_X
*792 sb_1__0_\.mux_left_track_13\.sky130_fd_sc_hd__mux2_1_1_X
*793 sb_1__0_\.mux_left_track_13\.sky130_fd_sc_hd__mux2_1_2_X
*794 sb_1__0_\.mux_left_track_13\.sky130_fd_sc_hd__mux2_1_3_X
*795 sb_1__0_\.mux_left_track_13\.sky130_fd_sc_hd__mux2_1_4_X
*796 sb_1__0_\.mux_left_track_13\.sky130_fd_sc_hd__mux2_1_5_X
*797 sb_1__0_\.mux_left_track_21\.out
*798 sb_1__0_\.mux_left_track_21\.sky130_fd_sc_hd__mux2_1_0_X
*799 sb_1__0_\.mux_left_track_21\.sky130_fd_sc_hd__mux2_1_1_X
*800 sb_1__0_\.mux_left_track_21\.sky130_fd_sc_hd__mux2_1_2_X
*801 sb_1__0_\.mux_left_track_21\.sky130_fd_sc_hd__mux2_1_3_X
*802 sb_1__0_\.mux_left_track_21\.sky130_fd_sc_hd__mux2_1_4_X
*803 sb_1__0_\.mux_left_track_21\.sky130_fd_sc_hd__mux2_1_5_X
*804 sb_1__0_\.mux_left_track_29\.out
*805 sb_1__0_\.mux_left_track_29\.sky130_fd_sc_hd__mux2_1_0_X
*806 sb_1__0_\.mux_left_track_29\.sky130_fd_sc_hd__mux2_1_1_X
*807 sb_1__0_\.mux_left_track_29\.sky130_fd_sc_hd__mux2_1_2_X
*808 sb_1__0_\.mux_left_track_29\.sky130_fd_sc_hd__mux2_1_3_X
*809 sb_1__0_\.mux_left_track_29\.sky130_fd_sc_hd__mux2_1_4_X
*810 sb_1__0_\.mux_left_track_29\.sky130_fd_sc_hd__mux2_1_5_X
*811 sb_1__0_\.mux_left_track_3\.out
*812 sb_1__0_\.mux_left_track_3\.sky130_fd_sc_hd__mux2_1_0_X
*813 sb_1__0_\.mux_left_track_3\.sky130_fd_sc_hd__mux2_1_1_X
*814 sb_1__0_\.mux_left_track_3\.sky130_fd_sc_hd__mux2_1_2_X
*815 sb_1__0_\.mux_left_track_3\.sky130_fd_sc_hd__mux2_1_3_X
*816 sb_1__0_\.mux_left_track_3\.sky130_fd_sc_hd__mux2_1_4_X
*817 sb_1__0_\.mux_left_track_37\.out
*818 sb_1__0_\.mux_left_track_37\.sky130_fd_sc_hd__mux2_1_0_X
*819 sb_1__0_\.mux_left_track_37\.sky130_fd_sc_hd__mux2_1_1_X
*820 sb_1__0_\.mux_left_track_37\.sky130_fd_sc_hd__mux2_1_2_X
*821 sb_1__0_\.mux_left_track_37\.sky130_fd_sc_hd__mux2_1_3_X
*822 sb_1__0_\.mux_left_track_37\.sky130_fd_sc_hd__mux2_1_4_X
*823 sb_1__0_\.mux_left_track_45\.out
*824 sb_1__0_\.mux_left_track_45\.sky130_fd_sc_hd__mux2_1_0_X
*825 sb_1__0_\.mux_left_track_45\.sky130_fd_sc_hd__mux2_1_1_X
*826 sb_1__0_\.mux_left_track_45\.sky130_fd_sc_hd__mux2_1_2_X
*827 sb_1__0_\.mux_left_track_45\.sky130_fd_sc_hd__mux2_1_3_X
*828 sb_1__0_\.mux_left_track_5\.out
*829 sb_1__0_\.mux_left_track_5\.sky130_fd_sc_hd__mux2_1_0_X
*830 sb_1__0_\.mux_left_track_5\.sky130_fd_sc_hd__mux2_1_1_X
*831 sb_1__0_\.mux_left_track_5\.sky130_fd_sc_hd__mux2_1_2_X
*832 sb_1__0_\.mux_left_track_5\.sky130_fd_sc_hd__mux2_1_3_X
*833 sb_1__0_\.mux_left_track_5\.sky130_fd_sc_hd__mux2_1_4_X
*834 sb_1__0_\.mux_left_track_53\.out
*835 sb_1__0_\.mux_left_track_53\.sky130_fd_sc_hd__mux2_1_0_X
*836 sb_1__0_\.mux_left_track_53\.sky130_fd_sc_hd__mux2_1_1_X
*837 sb_1__0_\.mux_left_track_53\.sky130_fd_sc_hd__mux2_1_2_X
*838 sb_1__0_\.mux_left_track_53\.sky130_fd_sc_hd__mux2_1_3_X
*839 sb_1__0_\.mux_left_track_7\.out
*840 sb_1__0_\.mux_left_track_7\.sky130_fd_sc_hd__mux2_1_0_X
*841 sb_1__0_\.mux_left_track_7\.sky130_fd_sc_hd__mux2_1_1_X
*842 sb_1__0_\.mux_left_track_7\.sky130_fd_sc_hd__mux2_1_2_X
*843 sb_1__0_\.mux_left_track_7\.sky130_fd_sc_hd__mux2_1_3_X
*844 sb_1__0_\.mux_left_track_7\.sky130_fd_sc_hd__mux2_1_4_X
*845 sb_1__0_\.mux_left_track_7\.sky130_fd_sc_hd__mux2_1_5_X
*846 sb_1__0_\.mux_right_track_0\.out
*847 sb_1__0_\.mux_right_track_0\.sky130_fd_sc_hd__mux2_1_0_X
*848 sb_1__0_\.mux_right_track_0\.sky130_fd_sc_hd__mux2_1_1_X
*849 sb_1__0_\.mux_right_track_0\.sky130_fd_sc_hd__mux2_1_2_X
*850 sb_1__0_\.mux_right_track_0\.sky130_fd_sc_hd__mux2_1_3_X
*851 sb_1__0_\.mux_right_track_0\.sky130_fd_sc_hd__mux2_1_4_X
*852 sb_1__0_\.mux_right_track_0\.sky130_fd_sc_hd__mux2_1_5_X
*853 sb_1__0_\.mux_right_track_10\.out
*854 sb_1__0_\.mux_right_track_10\.sky130_fd_sc_hd__mux2_1_0_X
*855 sb_1__0_\.mux_right_track_10\.sky130_fd_sc_hd__mux2_1_1_X
*856 sb_1__0_\.mux_right_track_10\.sky130_fd_sc_hd__mux2_1_2_X
*857 sb_1__0_\.mux_right_track_10\.sky130_fd_sc_hd__mux2_1_3_X
*858 sb_1__0_\.mux_right_track_10\.sky130_fd_sc_hd__mux2_1_4_X
*859 sb_1__0_\.mux_right_track_10\.sky130_fd_sc_hd__mux2_1_5_X
*860 sb_1__0_\.mux_right_track_10\.sky130_fd_sc_hd__mux2_1_6_X
*861 sb_1__0_\.mux_right_track_12\.out
*862 sb_1__0_\.mux_right_track_12\.sky130_fd_sc_hd__mux2_1_0_X
*863 sb_1__0_\.mux_right_track_12\.sky130_fd_sc_hd__mux2_1_1_X
*864 sb_1__0_\.mux_right_track_12\.sky130_fd_sc_hd__mux2_1_2_X
*865 sb_1__0_\.mux_right_track_12\.sky130_fd_sc_hd__mux2_1_3_X
*866 sb_1__0_\.mux_right_track_12\.sky130_fd_sc_hd__mux2_1_4_X
*867 sb_1__0_\.mux_right_track_12\.sky130_fd_sc_hd__mux2_1_5_X
*868 sb_1__0_\.mux_right_track_2\.out
*869 sb_1__0_\.mux_right_track_2\.sky130_fd_sc_hd__mux2_1_0_X
*870 sb_1__0_\.mux_right_track_2\.sky130_fd_sc_hd__mux2_1_1_X
*871 sb_1__0_\.mux_right_track_2\.sky130_fd_sc_hd__mux2_1_2_X
*872 sb_1__0_\.mux_right_track_2\.sky130_fd_sc_hd__mux2_1_3_X
*873 sb_1__0_\.mux_right_track_2\.sky130_fd_sc_hd__mux2_1_4_X
*874 sb_1__0_\.mux_right_track_2\.sky130_fd_sc_hd__mux2_1_5_X
*875 sb_1__0_\.mux_right_track_20\.out
*876 sb_1__0_\.mux_right_track_20\.sky130_fd_sc_hd__mux2_1_0_X
*877 sb_1__0_\.mux_right_track_20\.sky130_fd_sc_hd__mux2_1_1_X
*878 sb_1__0_\.mux_right_track_20\.sky130_fd_sc_hd__mux2_1_2_X
*879 sb_1__0_\.mux_right_track_20\.sky130_fd_sc_hd__mux2_1_3_X
*880 sb_1__0_\.mux_right_track_20\.sky130_fd_sc_hd__mux2_1_4_X
*881 sb_1__0_\.mux_right_track_20\.sky130_fd_sc_hd__mux2_1_5_X
*882 sb_1__0_\.mux_right_track_28\.out
*883 sb_1__0_\.mux_right_track_28\.sky130_fd_sc_hd__mux2_1_0_X
*884 sb_1__0_\.mux_right_track_28\.sky130_fd_sc_hd__mux2_1_1_X
*885 sb_1__0_\.mux_right_track_28\.sky130_fd_sc_hd__mux2_1_2_X
*886 sb_1__0_\.mux_right_track_28\.sky130_fd_sc_hd__mux2_1_3_X
*887 sb_1__0_\.mux_right_track_28\.sky130_fd_sc_hd__mux2_1_4_X
*888 sb_1__0_\.mux_right_track_28\.sky130_fd_sc_hd__mux2_1_5_X
*889 sb_1__0_\.mux_right_track_36\.out
*890 sb_1__0_\.mux_right_track_36\.sky130_fd_sc_hd__mux2_1_0_X
*891 sb_1__0_\.mux_right_track_36\.sky130_fd_sc_hd__mux2_1_1_X
*892 sb_1__0_\.mux_right_track_36\.sky130_fd_sc_hd__mux2_1_2_X
*893 sb_1__0_\.mux_right_track_36\.sky130_fd_sc_hd__mux2_1_3_X
*894 sb_1__0_\.mux_right_track_36\.sky130_fd_sc_hd__mux2_1_4_X
*895 sb_1__0_\.mux_right_track_4\.out
*896 sb_1__0_\.mux_right_track_4\.sky130_fd_sc_hd__mux2_1_0_X
*897 sb_1__0_\.mux_right_track_4\.sky130_fd_sc_hd__mux2_1_1_X
*898 sb_1__0_\.mux_right_track_4\.sky130_fd_sc_hd__mux2_1_2_X
*899 sb_1__0_\.mux_right_track_4\.sky130_fd_sc_hd__mux2_1_3_X
*900 sb_1__0_\.mux_right_track_4\.sky130_fd_sc_hd__mux2_1_4_X
*901 sb_1__0_\.mux_right_track_4\.sky130_fd_sc_hd__mux2_1_5_X
*902 sb_1__0_\.mux_right_track_44\.out
*903 sb_1__0_\.mux_right_track_44\.sky130_fd_sc_hd__mux2_1_0_X
*904 sb_1__0_\.mux_right_track_44\.sky130_fd_sc_hd__mux2_1_1_X
*905 sb_1__0_\.mux_right_track_44\.sky130_fd_sc_hd__mux2_1_2_X
*906 sb_1__0_\.mux_right_track_52\.out
*907 sb_1__0_\.mux_right_track_52\.sky130_fd_sc_hd__mux2_1_0_X
*908 sb_1__0_\.mux_right_track_52\.sky130_fd_sc_hd__mux2_1_1_X
*909 sb_1__0_\.mux_right_track_52\.sky130_fd_sc_hd__mux2_1_2_X
*910 sb_1__0_\.mux_right_track_6\.out