*SPEF "ieee 1481-1999"
*DESIGN "top_right_tile"
*DATE "11:11:11 Fri 11 11, 1111"
*VENDOR "OpenRCX"
*PROGRAM "Parallel Extraction"
*VERSION "1.0"
*DESIGN_FLOW "NAME_SCOPE LOCAL" "PIN_CAP NONE"
*DIVIDER /
*DELIMITER :
*BUS_DELIMITER []
*T_UNIT 1 NS
*C_UNIT 1 PF
*R_UNIT 1 OHM
*L_UNIT 1 HENRY

*NAME_MAP
*3 bottom_width_0_height_0_subtile_0__pin_cout_0_
*4 bottom_width_0_height_0_subtile_0__pin_inpad_0_
*5 bottom_width_0_height_0_subtile_0__pin_reg_out_0_
*6 bottom_width_0_height_0_subtile_1__pin_inpad_0_
*7 bottom_width_0_height_0_subtile_2__pin_inpad_0_
*8 bottom_width_0_height_0_subtile_3__pin_inpad_0_
*9 ccff_head_0_0
*10 ccff_head_1
*11 ccff_tail
*12 ccff_tail_0
*13 chanx_left_in[0]
*14 chanx_left_in[10]
*15 chanx_left_in[11]
*16 chanx_left_in[12]
*17 chanx_left_in[13]
*18 chanx_left_in[14]
*19 chanx_left_in[15]
*20 chanx_left_in[16]
*21 chanx_left_in[17]
*22 chanx_left_in[18]
*23 chanx_left_in[19]
*24 chanx_left_in[1]
*25 chanx_left_in[20]
*26 chanx_left_in[21]
*27 chanx_left_in[22]
*28 chanx_left_in[23]
*29 chanx_left_in[24]
*30 chanx_left_in[25]
*31 chanx_left_in[26]
*32 chanx_left_in[27]
*33 chanx_left_in[28]
*34 chanx_left_in[29]
*35 chanx_left_in[2]
*36 chanx_left_in[3]
*37 chanx_left_in[4]
*38 chanx_left_in[5]
*39 chanx_left_in[6]
*40 chanx_left_in[7]
*41 chanx_left_in[8]
*42 chanx_left_in[9]
*43 chanx_left_out[0]
*44 chanx_left_out[10]
*45 chanx_left_out[11]
*46 chanx_left_out[12]
*47 chanx_left_out[13]
*48 chanx_left_out[14]
*49 chanx_left_out[15]
*50 chanx_left_out[16]
*51 chanx_left_out[17]
*52 chanx_left_out[18]
*53 chanx_left_out[19]
*54 chanx_left_out[1]
*55 chanx_left_out[20]
*56 chanx_left_out[21]
*57 chanx_left_out[22]
*58 chanx_left_out[23]
*59 chanx_left_out[24]
*60 chanx_left_out[25]
*61 chanx_left_out[26]
*62 chanx_left_out[27]
*63 chanx_left_out[28]
*64 chanx_left_out[29]
*65 chanx_left_out[2]
*66 chanx_left_out[3]
*67 chanx_left_out[4]
*68 chanx_left_out[5]
*69 chanx_left_out[6]
*70 chanx_left_out[7]
*71 chanx_left_out[8]
*72 chanx_left_out[9]
*73 chany_bottom_in[0]
*74 chany_bottom_in[10]
*75 chany_bottom_in[11]
*76 chany_bottom_in[12]
*77 chany_bottom_in[13]
*78 chany_bottom_in[14]
*79 chany_bottom_in[15]
*80 chany_bottom_in[16]
*81 chany_bottom_in[17]
*82 chany_bottom_in[18]
*83 chany_bottom_in[19]
*84 chany_bottom_in[1]
*85 chany_bottom_in[20]
*86 chany_bottom_in[21]
*87 chany_bottom_in[22]
*88 chany_bottom_in[23]
*89 chany_bottom_in[24]
*90 chany_bottom_in[25]
*91 chany_bottom_in[26]
*92 chany_bottom_in[27]
*93 chany_bottom_in[28]
*94 chany_bottom_in[29]
*95 chany_bottom_in[2]
*96 chany_bottom_in[3]
*97 chany_bottom_in[4]
*98 chany_bottom_in[5]
*99 chany_bottom_in[6]
*100 chany_bottom_in[7]
*101 chany_bottom_in[8]
*102 chany_bottom_in[9]
*103 chany_bottom_out[0]
*104 chany_bottom_out[10]
*105 chany_bottom_out[11]
*106 chany_bottom_out[12]
*107 chany_bottom_out[13]
*108 chany_bottom_out[14]
*109 chany_bottom_out[15]
*110 chany_bottom_out[16]
*111 chany_bottom_out[17]
*112 chany_bottom_out[18]
*113 chany_bottom_out[19]
*114 chany_bottom_out[1]
*115 chany_bottom_out[20]
*116 chany_bottom_out[21]
*117 chany_bottom_out[22]
*118 chany_bottom_out[23]
*119 chany_bottom_out[24]
*120 chany_bottom_out[25]
*121 chany_bottom_out[26]
*122 chany_bottom_out[27]
*123 chany_bottom_out[28]
*124 chany_bottom_out[29]
*125 chany_bottom_out[2]
*126 chany_bottom_out[3]
*127 chany_bottom_out[4]
*128 chany_bottom_out[5]
*129 chany_bottom_out[6]
*130 chany_bottom_out[7]
*131 chany_bottom_out[8]
*132 chany_bottom_out[9]
*133 clk0
*134 gfpga_pad_io_soc_dir[0]
*135 gfpga_pad_io_soc_dir[1]
*136 gfpga_pad_io_soc_dir[2]
*137 gfpga_pad_io_soc_dir[3]
*138 gfpga_pad_io_soc_dir_0[0]
*139 gfpga_pad_io_soc_dir_0[1]
*140 gfpga_pad_io_soc_dir_0[2]
*141 gfpga_pad_io_soc_dir_0[3]
*142 gfpga_pad_io_soc_in[0]
*143 gfpga_pad_io_soc_in[1]
*144 gfpga_pad_io_soc_in[2]
*145 gfpga_pad_io_soc_in[3]
*146 gfpga_pad_io_soc_in_0[0]
*147 gfpga_pad_io_soc_in_0[1]
*148 gfpga_pad_io_soc_in_0[2]
*149 gfpga_pad_io_soc_in_0[3]
*150 gfpga_pad_io_soc_out[0]
*151 gfpga_pad_io_soc_out[1]
*152 gfpga_pad_io_soc_out[2]
*153 gfpga_pad_io_soc_out[3]
*154 gfpga_pad_io_soc_out_0[0]
*155 gfpga_pad_io_soc_out_0[1]
*156 gfpga_pad_io_soc_out_0[2]
*157 gfpga_pad_io_soc_out_0[3]
*158 isol_n
*159 left_width_0_height_0_subtile_0__pin_inpad_0_
*160 left_width_0_height_0_subtile_1__pin_inpad_0_
*161 left_width_0_height_0_subtile_2__pin_inpad_0_
*162 left_width_0_height_0_subtile_3__pin_inpad_0_
*163 prog_clk
*164 prog_reset
*165 reset
*166 right_width_0_height_0_subtile_0__pin_O_10_
*167 right_width_0_height_0_subtile_0__pin_O_11_
*168 right_width_0_height_0_subtile_0__pin_O_12_
*169 right_width_0_height_0_subtile_0__pin_O_13_
*170 right_width_0_height_0_subtile_0__pin_O_14_
*171 right_width_0_height_0_subtile_0__pin_O_15_
*172 right_width_0_height_0_subtile_0__pin_O_8_
*173 right_width_0_height_0_subtile_0__pin_O_9_
*174 sc_in
*175 sc_out
*176 test_enable
*177 top_width_0_height_0_subtile_0__pin_O_0_
*178 top_width_0_height_0_subtile_0__pin_O_1_
*179 top_width_0_height_0_subtile_0__pin_O_2_
*180 top_width_0_height_0_subtile_0__pin_O_3_
*181 top_width_0_height_0_subtile_0__pin_O_4_
*182 top_width_0_height_0_subtile_0__pin_O_5_
*183 top_width_0_height_0_subtile_0__pin_O_6_
*184 top_width_0_height_0_subtile_0__pin_O_7_
*185 top_width_0_height_0_subtile_0__pin_cin_0_
*186 top_width_0_height_0_subtile_0__pin_reg_in_0_
*187 cbx_8__8_\.bottom_grid_top_width_0_height_0_subtile_0__pin_I0_0_
*188 cbx_8__8_\.bottom_grid_top_width_0_height_0_subtile_0__pin_I0_1_
*189 cbx_8__8_\.bottom_grid_top_width_0_height_0_subtile_0__pin_I0i_0_
*190 cbx_8__8_\.bottom_grid_top_width_0_height_0_subtile_0__pin_I0i_1_
*191 cbx_8__8_\.bottom_grid_top_width_0_height_0_subtile_0__pin_I1_0_
*192 cbx_8__8_\.bottom_grid_top_width_0_height_0_subtile_0__pin_I1_1_
*193 cbx_8__8_\.bottom_grid_top_width_0_height_0_subtile_0__pin_I1i_0_
*194 cbx_8__8_\.bottom_grid_top_width_0_height_0_subtile_0__pin_I1i_1_
*195 cbx_8__8_\.bottom_grid_top_width_0_height_0_subtile_0__pin_I2_0_
*196 cbx_8__8_\.bottom_grid_top_width_0_height_0_subtile_0__pin_I2_1_
*197 cbx_8__8_\.bottom_grid_top_width_0_height_0_subtile_0__pin_I2i_0_
*198 cbx_8__8_\.bottom_grid_top_width_0_height_0_subtile_0__pin_I2i_1_
*199 cbx_8__8_\.bottom_grid_top_width_0_height_0_subtile_0__pin_I3_0_
*200 cbx_8__8_\.bottom_grid_top_width_0_height_0_subtile_0__pin_I3_1_
*201 cbx_8__8_\.bottom_grid_top_width_0_height_0_subtile_0__pin_I3i_0_
*202 cbx_8__8_\.bottom_grid_top_width_0_height_0_subtile_0__pin_I3i_1_
*203 cbx_8__8_\.cbx_1__8_\.ccff_head
*204 cbx_8__8_\.cbx_1__8_\.ccff_tail
*205 cbx_8__8_\.cbx_1__8_\.mem_bottom_ipin_0\.ccff_tail
*206 cbx_8__8_\.cbx_1__8_\.mem_bottom_ipin_0\.mem_out\[0\]
*207 cbx_8__8_\.cbx_1__8_\.mem_bottom_ipin_0\.mem_out\[1\]
*208 cbx_8__8_\.cbx_1__8_\.mem_bottom_ipin_0\.mem_out\[2\]
*209 cbx_8__8_\.cbx_1__8_\.mem_bottom_ipin_1\.ccff_tail
*210 cbx_8__8_\.cbx_1__8_\.mem_bottom_ipin_1\.mem_out\[0\]
*211 cbx_8__8_\.cbx_1__8_\.mem_bottom_ipin_1\.mem_out\[1\]
*212 cbx_8__8_\.cbx_1__8_\.mem_bottom_ipin_1\.mem_out\[2\]
*213 cbx_8__8_\.cbx_1__8_\.mem_bottom_ipin_2\.ccff_tail
*214 cbx_8__8_\.cbx_1__8_\.mem_bottom_ipin_2\.mem_out\[0\]
*215 cbx_8__8_\.cbx_1__8_\.mem_bottom_ipin_2\.mem_out\[1\]
*216 cbx_8__8_\.cbx_1__8_\.mem_bottom_ipin_2\.mem_out\[2\]
*217 cbx_8__8_\.cbx_1__8_\.mem_bottom_ipin_3\.ccff_tail
*218 cbx_8__8_\.cbx_1__8_\.mem_bottom_ipin_3\.mem_out\[0\]
*219 cbx_8__8_\.cbx_1__8_\.mem_bottom_ipin_3\.mem_out\[1\]
*220 cbx_8__8_\.cbx_1__8_\.mem_bottom_ipin_3\.mem_out\[2\]
*221 cbx_8__8_\.cbx_1__8_\.mem_top_ipin_0\.ccff_tail
*222 cbx_8__8_\.cbx_1__8_\.mem_top_ipin_0\.mem_out\[0\]
*223 cbx_8__8_\.cbx_1__8_\.mem_top_ipin_0\.mem_out\[1\]
*224 cbx_8__8_\.cbx_1__8_\.mem_top_ipin_0\.mem_out\[2\]
*225 cbx_8__8_\.cbx_1__8_\.mem_top_ipin_1\.ccff_tail
*226 cbx_8__8_\.cbx_1__8_\.mem_top_ipin_1\.mem_out\[0\]
*227 cbx_8__8_\.cbx_1__8_\.mem_top_ipin_1\.mem_out\[1\]
*228 cbx_8__8_\.cbx_1__8_\.mem_top_ipin_1\.mem_out\[2\]
*229 cbx_8__8_\.cbx_1__8_\.mem_top_ipin_10\.ccff_head
*230 cbx_8__8_\.cbx_1__8_\.mem_top_ipin_10\.ccff_tail
*231 cbx_8__8_\.cbx_1__8_\.mem_top_ipin_10\.mem_out\[0\]
*232 cbx_8__8_\.cbx_1__8_\.mem_top_ipin_10\.mem_out\[1\]
*233 cbx_8__8_\.cbx_1__8_\.mem_top_ipin_10\.mem_out\[2\]
*234 cbx_8__8_\.cbx_1__8_\.mem_top_ipin_11\.ccff_tail
*235 cbx_8__8_\.cbx_1__8_\.mem_top_ipin_11\.mem_out\[0\]
*236 cbx_8__8_\.cbx_1__8_\.mem_top_ipin_11\.mem_out\[1\]
*237 cbx_8__8_\.cbx_1__8_\.mem_top_ipin_11\.mem_out\[2\]
*238 cbx_8__8_\.cbx_1__8_\.mem_top_ipin_12\.ccff_tail
*239 cbx_8__8_\.cbx_1__8_\.mem_top_ipin_12\.mem_out\[0\]
*240 cbx_8__8_\.cbx_1__8_\.mem_top_ipin_12\.mem_out\[1\]
*241 cbx_8__8_\.cbx_1__8_\.mem_top_ipin_12\.mem_out\[2\]
*242 cbx_8__8_\.cbx_1__8_\.mem_top_ipin_13\.ccff_tail
*243 cbx_8__8_\.cbx_1__8_\.mem_top_ipin_13\.mem_out\[0\]
*244 cbx_8__8_\.cbx_1__8_\.mem_top_ipin_13\.mem_out\[1\]
*245 cbx_8__8_\.cbx_1__8_\.mem_top_ipin_13\.mem_out\[2\]
*246 cbx_8__8_\.cbx_1__8_\.mem_top_ipin_14\.ccff_tail
*247 cbx_8__8_\.cbx_1__8_\.mem_top_ipin_14\.mem_out\[0\]
*248 cbx_8__8_\.cbx_1__8_\.mem_top_ipin_14\.mem_out\[1\]
*249 cbx_8__8_\.cbx_1__8_\.mem_top_ipin_14\.mem_out\[2\]
*250 cbx_8__8_\.cbx_1__8_\.mem_top_ipin_15\.mem_out\[0\]
*251 cbx_8__8_\.cbx_1__8_\.mem_top_ipin_15\.mem_out\[1\]
*252 cbx_8__8_\.cbx_1__8_\.mem_top_ipin_15\.mem_out\[2\]
*253 cbx_8__8_\.cbx_1__8_\.mem_top_ipin_2\.ccff_tail
*254 cbx_8__8_\.cbx_1__8_\.mem_top_ipin_2\.mem_out\[0\]
*255 cbx_8__8_\.cbx_1__8_\.mem_top_ipin_2\.mem_out\[1\]
*256 cbx_8__8_\.cbx_1__8_\.mem_top_ipin_2\.mem_out\[2\]
*257 cbx_8__8_\.cbx_1__8_\.mem_top_ipin_3\.ccff_tail
*258 cbx_8__8_\.cbx_1__8_\.mem_top_ipin_3\.mem_out\[0\]
*259 cbx_8__8_\.cbx_1__8_\.mem_top_ipin_3\.mem_out\[1\]
*260 cbx_8__8_\.cbx_1__8_\.mem_top_ipin_3\.mem_out\[2\]
*261 cbx_8__8_\.cbx_1__8_\.mem_top_ipin_4\.ccff_tail
*262 cbx_8__8_\.cbx_1__8_\.mem_top_ipin_4\.mem_out\[0\]
*263 cbx_8__8_\.cbx_1__8_\.mem_top_ipin_4\.mem_out\[1\]
*264 cbx_8__8_\.cbx_1__8_\.mem_top_ipin_4\.mem_out\[2\]
*265 cbx_8__8_\.cbx_1__8_\.mem_top_ipin_5\.ccff_tail
*266 cbx_8__8_\.cbx_1__8_\.mem_top_ipin_5\.mem_out\[0\]
*267 cbx_8__8_\.cbx_1__8_\.mem_top_ipin_5\.mem_out\[1\]
*268 cbx_8__8_\.cbx_1__8_\.mem_top_ipin_5\.mem_out\[2\]
*269 cbx_8__8_\.cbx_1__8_\.mem_top_ipin_6\.ccff_tail
*270 cbx_8__8_\.cbx_1__8_\.mem_top_ipin_6\.mem_out\[0\]
*271 cbx_8__8_\.cbx_1__8_\.mem_top_ipin_6\.mem_out\[1\]
*272 cbx_8__8_\.cbx_1__8_\.mem_top_ipin_6\.mem_out\[2\]
*273 cbx_8__8_\.cbx_1__8_\.mem_top_ipin_7\.ccff_tail
*274 cbx_8__8_\.cbx_1__8_\.mem_top_ipin_7\.mem_out\[0\]
*275 cbx_8__8_\.cbx_1__8_\.mem_top_ipin_7\.mem_out\[1\]
*276 cbx_8__8_\.cbx_1__8_\.mem_top_ipin_7\.mem_out\[2\]
*277 cbx_8__8_\.cbx_1__8_\.mem_top_ipin_8\.ccff_tail
*278 cbx_8__8_\.cbx_1__8_\.mem_top_ipin_8\.mem_out\[0\]
*279 cbx_8__8_\.cbx_1__8_\.mem_top_ipin_8\.mem_out\[1\]
*280 cbx_8__8_\.cbx_1__8_\.mem_top_ipin_8\.mem_out\[2\]
*281 cbx_8__8_\.cbx_1__8_\.mem_top_ipin_9\.mem_out\[0\]
*282 cbx_8__8_\.cbx_1__8_\.mem_top_ipin_9\.mem_out\[1\]
*283 cbx_8__8_\.cbx_1__8_\.mem_top_ipin_9\.mem_out\[2\]
*284 cbx_8__8_\.cbx_1__8_\.mux_bottom_ipin_0\.out
*285 cbx_8__8_\.cbx_1__8_\.mux_bottom_ipin_0\.sky130_fd_sc_hd__mux2_1_0_X
*286 cbx_8__8_\.cbx_1__8_\.mux_bottom_ipin_0\.sky130_fd_sc_hd__mux2_1_10_X
*287 cbx_8__8_\.cbx_1__8_\.mux_bottom_ipin_0\.sky130_fd_sc_hd__mux2_1_11_X
*288 cbx_8__8_\.cbx_1__8_\.mux_bottom_ipin_0\.sky130_fd_sc_hd__mux2_1_1_X
*289 cbx_8__8_\.cbx_1__8_\.mux_bottom_ipin_0\.sky130_fd_sc_hd__mux2_1_2_X
*290 cbx_8__8_\.cbx_1__8_\.mux_bottom_ipin_0\.sky130_fd_sc_hd__mux2_1_3_X
*291 cbx_8__8_\.cbx_1__8_\.mux_bottom_ipin_0\.sky130_fd_sc_hd__mux2_1_4_X
*292 cbx_8__8_\.cbx_1__8_\.mux_bottom_ipin_0\.sky130_fd_sc_hd__mux2_1_5_X
*293 cbx_8__8_\.cbx_1__8_\.mux_bottom_ipin_0\.sky130_fd_sc_hd__mux2_1_6_X
*294 cbx_8__8_\.cbx_1__8_\.mux_bottom_ipin_0\.sky130_fd_sc_hd__mux2_1_7_X
*295 cbx_8__8_\.cbx_1__8_\.mux_bottom_ipin_0\.sky130_fd_sc_hd__mux2_1_8_X
*296 cbx_8__8_\.cbx_1__8_\.mux_bottom_ipin_0\.sky130_fd_sc_hd__mux2_1_9_X
*297 cbx_8__8_\.cbx_1__8_\.mux_bottom_ipin_1\.out
*298 cbx_8__8_\.cbx_1__8_\.mux_bottom_ipin_1\.sky130_fd_sc_hd__mux2_1_0_X
*299 cbx_8__8_\.cbx_1__8_\.mux_bottom_ipin_1\.sky130_fd_sc_hd__mux2_1_10_X
*300 cbx_8__8_\.cbx_1__8_\.mux_bottom_ipin_1\.sky130_fd_sc_hd__mux2_1_11_X
*301 cbx_8__8_\.cbx_1__8_\.mux_bottom_ipin_1\.sky130_fd_sc_hd__mux2_1_1_X
*302 cbx_8__8_\.cbx_1__8_\.mux_bottom_ipin_1\.sky130_fd_sc_hd__mux2_1_2_X
*303 cbx_8__8_\.cbx_1__8_\.mux_bottom_ipin_1\.sky130_fd_sc_hd__mux2_1_3_X
*304 cbx_8__8_\.cbx_1__8_\.mux_bottom_ipin_1\.sky130_fd_sc_hd__mux2_1_4_X
*305 cbx_8__8_\.cbx_1__8_\.mux_bottom_ipin_1\.sky130_fd_sc_hd__mux2_1_5_X
*306 cbx_8__8_\.cbx_1__8_\.mux_bottom_ipin_1\.sky130_fd_sc_hd__mux2_1_6_X
*307 cbx_8__8_\.cbx_1__8_\.mux_bottom_ipin_1\.sky130_fd_sc_hd__mux2_1_7_X
*308 cbx_8__8_\.cbx_1__8_\.mux_bottom_ipin_1\.sky130_fd_sc_hd__mux2_1_8_X
*309 cbx_8__8_\.cbx_1__8_\.mux_bottom_ipin_1\.sky130_fd_sc_hd__mux2_1_9_X
*310 cbx_8__8_\.cbx_1__8_\.mux_bottom_ipin_2\.out
*311 cbx_8__8_\.cbx_1__8_\.mux_bottom_ipin_2\.sky130_fd_sc_hd__mux2_1_0_X
*312 cbx_8__8_\.cbx_1__8_\.mux_bottom_ipin_2\.sky130_fd_sc_hd__mux2_1_10_X
*313 cbx_8__8_\.cbx_1__8_\.mux_bottom_ipin_2\.sky130_fd_sc_hd__mux2_1_11_X
*314 cbx_8__8_\.cbx_1__8_\.mux_bottom_ipin_2\.sky130_fd_sc_hd__mux2_1_1_X
*315 cbx_8__8_\.cbx_1__8_\.mux_bottom_ipin_2\.sky130_fd_sc_hd__mux2_1_2_X
*316 cbx_8__8_\.cbx_1__8_\.mux_bottom_ipin_2\.sky130_fd_sc_hd__mux2_1_3_X
*317 cbx_8__8_\.cbx_1__8_\.mux_bottom_ipin_2\.sky130_fd_sc_hd__mux2_1_4_X
*318 cbx_8__8_\.cbx_1__8_\.mux_bottom_ipin_2\.sky130_fd_sc_hd__mux2_1_5_X
*319 cbx_8__8_\.cbx_1__8_\.mux_bottom_ipin_2\.sky130_fd_sc_hd__mux2_1_6_X
*320 cbx_8__8_\.cbx_1__8_\.mux_bottom_ipin_2\.sky130_fd_sc_hd__mux2_1_7_X
*321 cbx_8__8_\.cbx_1__8_\.mux_bottom_ipin_2\.sky130_fd_sc_hd__mux2_1_8_X
*322 cbx_8__8_\.cbx_1__8_\.mux_bottom_ipin_2\.sky130_fd_sc_hd__mux2_1_9_X
*323 cbx_8__8_\.cbx_1__8_\.mux_bottom_ipin_3\.out
*324 cbx_8__8_\.cbx_1__8_\.mux_bottom_ipin_3\.sky130_fd_sc_hd__mux2_1_0_X
*325 cbx_8__8_\.cbx_1__8_\.mux_bottom_ipin_3\.sky130_fd_sc_hd__mux2_1_10_X
*326 cbx_8__8_\.cbx_1__8_\.mux_bottom_ipin_3\.sky130_fd_sc_hd__mux2_1_11_X
*327 cbx_8__8_\.cbx_1__8_\.mux_bottom_ipin_3\.sky130_fd_sc_hd__mux2_1_1_X
*328 cbx_8__8_\.cbx_1__8_\.mux_bottom_ipin_3\.sky130_fd_sc_hd__mux2_1_2_X
*329 cbx_8__8_\.cbx_1__8_\.mux_bottom_ipin_3\.sky130_fd_sc_hd__mux2_1_3_X
*330 cbx_8__8_\.cbx_1__8_\.mux_bottom_ipin_3\.sky130_fd_sc_hd__mux2_1_4_X
*331 cbx_8__8_\.cbx_1__8_\.mux_bottom_ipin_3\.sky130_fd_sc_hd__mux2_1_5_X
*332 cbx_8__8_\.cbx_1__8_\.mux_bottom_ipin_3\.sky130_fd_sc_hd__mux2_1_6_X
*333 cbx_8__8_\.cbx_1__8_\.mux_bottom_ipin_3\.sky130_fd_sc_hd__mux2_1_7_X
*334 cbx_8__8_\.cbx_1__8_\.mux_bottom_ipin_3\.sky130_fd_sc_hd__mux2_1_8_X
*335 cbx_8__8_\.cbx_1__8_\.mux_bottom_ipin_3\.sky130_fd_sc_hd__mux2_1_9_X
*336 cbx_8__8_\.cbx_1__8_\.mux_top_ipin_0\.sky130_fd_sc_hd__mux2_1_0_X
*337 cbx_8__8_\.cbx_1__8_\.mux_top_ipin_0\.sky130_fd_sc_hd__mux2_1_10_X
*338 cbx_8__8_\.cbx_1__8_\.mux_top_ipin_0\.sky130_fd_sc_hd__mux2_1_11_X
*339 cbx_8__8_\.cbx_1__8_\.mux_top_ipin_0\.sky130_fd_sc_hd__mux2_1_1_X
*340 cbx_8__8_\.cbx_1__8_\.mux_top_ipin_0\.sky130_fd_sc_hd__mux2_1_2_X
*341 cbx_8__8_\.cbx_1__8_\.mux_top_ipin_0\.sky130_fd_sc_hd__mux2_1_3_X
*342 cbx_8__8_\.cbx_1__8_\.mux_top_ipin_0\.sky130_fd_sc_hd__mux2_1_4_X
*343 cbx_8__8_\.cbx_1__8_\.mux_top_ipin_0\.sky130_fd_sc_hd__mux2_1_5_X
*344 cbx_8__8_\.cbx_1__8_\.mux_top_ipin_0\.sky130_fd_sc_hd__mux2_1_6_X
*345 cbx_8__8_\.cbx_1__8_\.mux_top_ipin_0\.sky130_fd_sc_hd__mux2_1_7_X
*346 cbx_8__8_\.cbx_1__8_\.mux_top_ipin_0\.sky130_fd_sc_hd__mux2_1_8_X
*347 cbx_8__8_\.cbx_1__8_\.mux_top_ipin_0\.sky130_fd_sc_hd__mux2_1_9_X
*348 cbx_8__8_\.cbx_1__8_\.mux_top_ipin_1\.sky130_fd_sc_hd__mux2_1_0_X
*349 cbx_8__8_\.cbx_1__8_\.mux_top_ipin_1\.sky130_fd_sc_hd__mux2_1_1_X
*350 cbx_8__8_\.cbx_1__8_\.mux_top_ipin_1\.sky130_fd_sc_hd__mux2_1_2_X
*351 cbx_8__8_\.cbx_1__8_\.mux_top_ipin_1\.sky130_fd_sc_hd__mux2_1_3_X
*352 cbx_8__8_\.cbx_1__8_\.mux_top_ipin_1\.sky130_fd_sc_hd__mux2_1_4_X
*353 cbx_8__8_\.cbx_1__8_\.mux_top_ipin_1\.sky130_fd_sc_hd__mux2_1_5_X
*354 cbx_8__8_\.cbx_1__8_\.mux_top_ipin_1\.sky130_fd_sc_hd__mux2_1_6_X
*355 cbx_8__8_\.cbx_1__8_\.mux_top_ipin_1\.sky130_fd_sc_hd__mux2_1_7_X
*356 cbx_8__8_\.cbx_1__8_\.mux_top_ipin_1\.sky130_fd_sc_hd__mux2_1_8_X
*357 cbx_8__8_\.cbx_1__8_\.mux_top_ipin_1\.sky130_fd_sc_hd__mux2_1_9_X
*358 cbx_8__8_\.cbx_1__8_\.mux_top_ipin_10\.sky130_fd_sc_hd__mux2_1_0_X
*359 cbx_8__8_\.cbx_1__8_\.mux_top_ipin_10\.sky130_fd_sc_hd__mux2_1_10_X
*360 cbx_8__8_\.cbx_1__8_\.mux_top_ipin_10\.sky130_fd_sc_hd__mux2_1_11_X
*361 cbx_8__8_\.cbx_1__8_\.mux_top_ipin_10\.sky130_fd_sc_hd__mux2_1_1_X
*362 cbx_8__8_\.cbx_1__8_\.mux_top_ipin_10\.sky130_fd_sc_hd__mux2_1_2_X
*363 cbx_8__8_\.cbx_1__8_\.mux_top_ipin_10\.sky130_fd_sc_hd__mux2_1_3_X
*364 cbx_8__8_\.cbx_1__8_\.mux_top_ipin_10\.sky130_fd_sc_hd__mux2_1_4_X
*365 cbx_8__8_\.cbx_1__8_\.mux_top_ipin_10\.sky130_fd_sc_hd__mux2_1_5_X
*366 cbx_8__8_\.cbx_1__8_\.mux_top_ipin_10\.sky130_fd_sc_hd__mux2_1_6_X
*367 cbx_8__8_\.cbx_1__8_\.mux_top_ipin_10\.sky130_fd_sc_hd__mux2_1_7_X
*368 cbx_8__8_\.cbx_1__8_\.mux_top_ipin_10\.sky130_fd_sc_hd__mux2_1_8_X
*369 cbx_8__8_\.cbx_1__8_\.mux_top_ipin_10\.sky130_fd_sc_hd__mux2_1_9_X
*370 cbx_8__8_\.cbx_1__8_\.mux_top_ipin_11\.sky130_fd_sc_hd__mux2_1_0_X
*371 cbx_8__8_\.cbx_1__8_\.mux_top_ipin_11\.sky130_fd_sc_hd__mux2_1_1_X
*372 cbx_8__8_\.cbx_1__8_\.mux_top_ipin_11\.sky130_fd_sc_hd__mux2_1_2_X
*373 cbx_8__8_\.cbx_1__8_\.mux_top_ipin_11\.sky130_fd_sc_hd__mux2_1_3_X
*374 cbx_8__8_\.cbx_1__8_\.mux_top_ipin_11\.sky130_fd_sc_hd__mux2_1_4_X
*375 cbx_8__8_\.cbx_1__8_\.mux_top_ipin_11\.sky130_fd_sc_hd__mux2_1_5_X
*376 cbx_8__8_\.cbx_1__8_\.mux_top_ipin_11\.sky130_fd_sc_hd__mux2_1_6_X
*377 cbx_8__8_\.cbx_1__8_\.mux_top_ipin_11\.sky130_fd_sc_hd__mux2_1_7_X
*378 cbx_8__8_\.cbx_1__8_\.mux_top_ipin_11\.sky130_fd_sc_hd__mux2_1_8_X
*379 cbx_8__8_\.cbx_1__8_\.mux_top_ipin_11\.sky130_fd_sc_hd__mux2_1_9_X
*380 cbx_8__8_\.cbx_1__8_\.mux_top_ipin_12\.sky130_fd_sc_hd__mux2_1_0_X
*381 cbx_8__8_\.cbx_1__8_\.mux_top_ipin_12\.sky130_fd_sc_hd__mux2_1_10_X
*382 cbx_8__8_\.cbx_1__8_\.mux_top_ipin_12\.sky130_fd_sc_hd__mux2_1_11_X
*383 cbx_8__8_\.cbx_1__8_\.mux_top_ipin_12\.sky130_fd_sc_hd__mux2_1_1_X
*384 cbx_8__8_\.cbx_1__8_\.mux_top_ipin_12\.sky130_fd_sc_hd__mux2_1_2_X
*385 cbx_8__8_\.cbx_1__8_\.mux_top_ipin_12\.sky130_fd_sc_hd__mux2_1_3_X
*386 cbx_8__8_\.cbx_1__8_\.mux_top_ipin_12\.sky130_fd_sc_hd__mux2_1_4_X
*387 cbx_8__8_\.cbx_1__8_\.mux_top_ipin_12\.sky130_fd_sc_hd__mux2_1_5_X
*388 cbx_8__8_\.cbx_1__8_\.mux_top_ipin_12\.sky130_fd_sc_hd__mux2_1_6_X
*389 cbx_8__8_\.cbx_1__8_\.mux_top_ipin_12\.sky130_fd_sc_hd__mux2_1_7_X
*390 cbx_8__8_\.cbx_1__8_\.mux_top_ipin_12\.sky130_fd_sc_hd__mux2_1_8_X
*391 cbx_8__8_\.cbx_1__8_\.mux_top_ipin_12\.sky130_fd_sc_hd__mux2_1_9_X
*392 cbx_8__8_\.cbx_1__8_\.mux_top_ipin_13\.sky130_fd_sc_hd__mux2_1_0_X
*393 cbx_8__8_\.cbx_1__8_\.mux_top_ipin_13\.sky130_fd_sc_hd__mux2_1_1_X
*394 cbx_8__8_\.cbx_1__8_\.mux_top_ipin_13\.sky130_fd_sc_hd__mux2_1_2_X
*395 cbx_8__8_\.cbx_1__8_\.mux_top_ipin_13\.sky130_fd_sc_hd__mux2_1_3_X
*396 cbx_8__8_\.cbx_1__8_\.mux_top_ipin_13\.sky130_fd_sc_hd__mux2_1_4_X
*397 cbx_8__8_\.cbx_1__8_\.mux_top_ipin_13\.sky130_fd_sc_hd__mux2_1_5_X
*398 cbx_8__8_\.cbx_1__8_\.mux_top_ipin_13\.sky130_fd_sc_hd__mux2_1_6_X
*399 cbx_8__8_\.cbx_1__8_\.mux_top_ipin_13\.sky130_fd_sc_hd__mux2_1_7_X
*400 cbx_8__8_\.cbx_1__8_\.mux_top_ipin_13\.sky130_fd_sc_hd__mux2_1_8_X
*401 cbx_8__8_\.cbx_1__8_\.mux_top_ipin_13\.sky130_fd_sc_hd__mux2_1_9_X
*402 cbx_8__8_\.cbx_1__8_\.mux_top_ipin_14\.sky130_fd_sc_hd__mux2_1_0_X
*403 cbx_8__8_\.cbx_1__8_\.mux_top_ipin_14\.sky130_fd_sc_hd__mux2_1_10_X
*404 cbx_8__8_\.cbx_1__8_\.mux_top_ipin_14\.sky130_fd_sc_hd__mux2_1_11_X
*405 cbx_8__8_\.cbx_1__8_\.mux_top_ipin_14\.sky130_fd_sc_hd__mux2_1_1_X
*406 cbx_8__8_\.cbx_1__8_\.mux_top_ipin_14\.sky130_fd_sc_hd__mux2_1_2_X
*407 cbx_8__8_\.cbx_1__8_\.mux_top_ipin_14\.sky130_fd_sc_hd__mux2_1_3_X
*408 cbx_8__8_\.cbx_1__8_\.mux_top_ipin_14\.sky130_fd_sc_hd__mux2_1_4_X
*409 cbx_8__8_\.cbx_1__8_\.mux_top_ipin_14\.sky130_fd_sc_hd__mux2_1_5_X
*410 cbx_8__8_\.cbx_1__8_\.mux_top_ipin_14\.sky130_fd_sc_hd__mux2_1_6_X
*411 cbx_8__8_\.cbx_1__8_\.mux_top_ipin_14\.sky130_fd_sc_hd__mux2_1_7_X
*412 cbx_8__8_\.cbx_1__8_\.mux_top_ipin_14\.sky130_fd_sc_hd__mux2_1_8_X
*413 cbx_8__8_\.cbx_1__8_\.mux_top_ipin_14\.sky130_fd_sc_hd__mux2_1_9_X
*414 cbx_8__8_\.cbx_1__8_\.mux_top_ipin_15\.sky130_fd_sc_hd__mux2_1_0_X
*415 cbx_8__8_\.cbx_1__8_\.mux_top_ipin_15\.sky130_fd_sc_hd__mux2_1_1_X
*416 cbx_8__8_\.cbx_1__8_\.mux_top_ipin_15\.sky130_fd_sc_hd__mux2_1_2_X
*417 cbx_8__8_\.cbx_1__8_\.mux_top_ipin_15\.sky130_fd_sc_hd__mux2_1_3_X
*418 cbx_8__8_\.cbx_1__8_\.mux_top_ipin_15\.sky130_fd_sc_hd__mux2_1_4_X
*419 cbx_8__8_\.cbx_1__8_\.mux_top_ipin_15\.sky130_fd_sc_hd__mux2_1_5_X
*420 cbx_8__8_\.cbx_1__8_\.mux_top_ipin_15\.sky130_fd_sc_hd__mux2_1_6_X
*421 cbx_8__8_\.cbx_1__8_\.mux_top_ipin_15\.sky130_fd_sc_hd__mux2_1_7_X
*422 cbx_8__8_\.cbx_1__8_\.mux_top_ipin_15\.sky130_fd_sc_hd__mux2_1_8_X
*423 cbx_8__8_\.cbx_1__8_\.mux_top_ipin_15\.sky130_fd_sc_hd__mux2_1_9_X
*424 cbx_8__8_\.cbx_1__8_\.mux_top_ipin_2\.sky130_fd_sc_hd__mux2_1_0_X
*425 cbx_8__8_\.cbx_1__8_\.mux_top_ipin_2\.sky130_fd_sc_hd__mux2_1_10_X
*426 cbx_8__8_\.cbx_1__8_\.mux_top_ipin_2\.sky130_fd_sc_hd__mux2_1_11_X
*427 cbx_8__8_\.cbx_1__8_\.mux_top_ipin_2\.sky130_fd_sc_hd__mux2_1_1_X
*428 cbx_8__8_\.cbx_1__8_\.mux_top_ipin_2\.sky130_fd_sc_hd__mux2_1_2_X
*429 cbx_8__8_\.cbx_1__8_\.mux_top_ipin_2\.sky130_fd_sc_hd__mux2_1_3_X
*430 cbx_8__8_\.cbx_1__8_\.mux_top_ipin_2\.sky130_fd_sc_hd__mux2_1_4_X
*431 cbx_8__8_\.cbx_1__8_\.mux_top_ipin_2\.sky130_fd_sc_hd__mux2_1_5_X
*432 cbx_8__8_\.cbx_1__8_\.mux_top_ipin_2\.sky130_fd_sc_hd__mux2_1_6_X
*433 cbx_8__8_\.cbx_1__8_\.mux_top_ipin_2\.sky130_fd_sc_hd__mux2_1_7_X
*434 cbx_8__8_\.cbx_1__8_\.mux_top_ipin_2\.sky130_fd_sc_hd__mux2_1_8_X
*435 cbx_8__8_\.cbx_1__8_\.mux_top_ipin_2\.sky130_fd_sc_hd__mux2_1_9_X
*436 cbx_8__8_\.cbx_1__8_\.mux_top_ipin_3\.sky130_fd_sc_hd__mux2_1_0_X
*437 cbx_8__8_\.cbx_1__8_\.mux_top_ipin_3\.sky130_fd_sc_hd__mux2_1_1_X
*438 cbx_8__8_\.cbx_1__8_\.mux_top_ipin_3\.sky130_fd_sc_hd__mux2_1_2_X
*439 cbx_8__8_\.cbx_1__8_\.mux_top_ipin_3\.sky130_fd_sc_hd__mux2_1_3_X
*440 cbx_8__8_\.cbx_1__8_\.mux_top_ipin_3\.sky130_fd_sc_hd__mux2_1_4_X
*441 cbx_8__8_\.cbx_1__8_\.mux_top_ipin_3\.sky130_fd_sc_hd__mux2_1_5_X
*442 cbx_8__8_\.cbx_1__8_\.mux_top_ipin_3\.sky130_fd_sc_hd__mux2_1_6_X
*443 cbx_8__8_\.cbx_1__8_\.mux_top_ipin_3\.sky130_fd_sc_hd__mux2_1_7_X
*444 cbx_8__8_\.cbx_1__8_\.mux_top_ipin_3\.sky130_fd_sc_hd__mux2_1_8_X
*445 cbx_8__8_\.cbx_1__8_\.mux_top_ipin_3\.sky130_fd_sc_hd__mux2_1_9_X
*446 cbx_8__8_\.cbx_1__8_\.mux_top_ipin_4\.sky130_fd_sc_hd__mux2_1_0_X
*447 cbx_8__8_\.cbx_1__8_\.mux_top_ipin_4\.sky130_fd_sc_hd__mux2_1_10_X
*448 cbx_8__8_\.cbx_1__8_\.mux_top_ipin_4\.sky130_fd_sc_hd__mux2_1_11_X
*449 cbx_8__8_\.cbx_1__8_\.mux_top_ipin_4\.sky130_fd_sc_hd__mux2_1_1_X
*450 cbx_8__8_\.cbx_1__8_\.mux_top_ipin_4\.sky130_fd_sc_hd__mux2_1_2_X
*451 cbx_8__8_\.cbx_1__8_\.mux_top_ipin_4\.sky130_fd_sc_hd__mux2_1_3_X
*452 cbx_8__8_\.cbx_1__8_\.mux_top_ipin_4\.sky130_fd_sc_hd__mux2_1_4_X
*453 cbx_8__8_\.cbx_1__8_\.mux_top_ipin_4\.sky130_fd_sc_hd__mux2_1_5_X
*454 cbx_8__8_\.cbx_1__8_\.mux_top_ipin_4\.sky130_fd_sc_hd__mux2_1_6_X
*455 cbx_8__8_\.cbx_1__8_\.mux_top_ipin_4\.sky130_fd_sc_hd__mux2_1_7_X
*456 cbx_8__8_\.cbx_1__8_\.mux_top_ipin_4\.sky130_fd_sc_hd__mux2_1_8_X
*457 cbx_8__8_\.cbx_1__8_\.mux_top_ipin_4\.sky130_fd_sc_hd__mux2_1_9_X
*458 cbx_8__8_\.cbx_1__8_\.mux_top_ipin_5\.sky130_fd_sc_hd__mux2_1_0_X
*459 cbx_8__8_\.cbx_1__8_\.mux_top_ipin_5\.sky130_fd_sc_hd__mux2_1_1_X
*460 cbx_8__8_\.cbx_1__8_\.mux_top_ipin_5\.sky130_fd_sc_hd__mux2_1_2_X
*461 cbx_8__8_\.cbx_1__8_\.mux_top_ipin_5\.sky130_fd_sc_hd__mux2_1_3_X
*462 cbx_8__8_\.cbx_1__8_\.mux_top_ipin_5\.sky130_fd_sc_hd__mux2_1_4_X
*463 cbx_8__8_\.cbx_1__8_\.mux_top_ipin_5\.sky130_fd_sc_hd__mux2_1_5_X
*464 cbx_8__8_\.cbx_1__8_\.mux_top_ipin_5\.sky130_fd_sc_hd__mux2_1_6_X
*465 cbx_8__8_\.cbx_1__8_\.mux_top_ipin_5\.sky130_fd_sc_hd__mux2_1_7_X
*466 cbx_8__8_\.cbx_1__8_\.mux_top_ipin_5\.sky130_fd_sc_hd__mux2_1_8_X
*467 cbx_8__8_\.cbx_1__8_\.mux_top_ipin_5\.sky130_fd_sc_hd__mux2_1_9_X
*468 cbx_8__8_\.cbx_1__8_\.mux_top_ipin_6\.sky130_fd_sc_hd__mux2_1_0_X
*469 cbx_8__8_\.cbx_1__8_\.mux_top_ipin_6\.sky130_fd_sc_hd__mux2_1_10_X
*470 cbx_8__8_\.cbx_1__8_\.mux_top_ipin_6\.sky130_fd_sc_hd__mux2_1_11_X
*471 cbx_8__8_\.cbx_1__8_\.mux_top_ipin_6\.sky130_fd_sc_hd__mux2_1_1_X
*472 cbx_8__8_\.cbx_1__8_\.mux_top_ipin_6\.sky130_fd_sc_hd__mux2_1_2_X
*473 cbx_8__8_\.cbx_1__8_\.mux_top_ipin_6\.sky130_fd_sc_hd__mux2_1_3_X
*474 cbx_8__8_\.cbx_1__8_\.mux_top_ipin_6\.sky130_fd_sc_hd__mux2_1_4_X
*475 cbx_8__8_\.cbx_1__8_\.mux_top_ipin_6\.sky130_fd_sc_hd__mux2_1_5_X
*476 cbx_8__8_\.cbx_1__8_\.mux_top_ipin_6\.sky130_fd_sc_hd__mux2_1_6_X
*477 cbx_8__8_\.cbx_1__8_\.mux_top_ipin_6\.sky130_fd_sc_hd__mux2_1_7_X
*478 cbx_8__8_\.cbx_1__8_\.mux_top_ipin_6\.sky130_fd_sc_hd__mux2_1_8_X
*479 cbx_8__8_\.cbx_1__8_\.mux_top_ipin_6\.sky130_fd_sc_hd__mux2_1_9_X
*480 cbx_8__8_\.cbx_1__8_\.mux_top_ipin_7\.sky130_fd_sc_hd__mux2_1_0_X
*481 cbx_8__8_\.cbx_1__8_\.mux_top_ipin_7\.sky130_fd_sc_hd__mux2_1_1_X
*482 cbx_8__8_\.cbx_1__8_\.mux_top_ipin_7\.sky130_fd_sc_hd__mux2_1_2_X
*483 cbx_8__8_\.cbx_1__8_\.mux_top_ipin_7\.sky130_fd_sc_hd__mux2_1_3_X
*484 cbx_8__8_\.cbx_1__8_\.mux_top_ipin_7\.sky130_fd_sc_hd__mux2_1_4_X
*485 cbx_8__8_\.cbx_1__8_\.mux_top_ipin_7\.sky130_fd_sc_hd__mux2_1_5_X
*486 cbx_8__8_\.cbx_1__8_\.mux_top_ipin_7\.sky130_fd_sc_hd__mux2_1_6_X
*487 cbx_8__8_\.cbx_1__8_\.mux_top_ipin_7\.sky130_fd_sc_hd__mux2_1_7_X
*488 cbx_8__8_\.cbx_1__8_\.mux_top_ipin_7\.sky130_fd_sc_hd__mux2_1_8_X
*489 cbx_8__8_\.cbx_1__8_\.mux_top_ipin_7\.sky130_fd_sc_hd__mux2_1_9_X
*490 cbx_8__8_\.cbx_1__8_\.mux_top_ipin_8\.sky130_fd_sc_hd__mux2_1_0_X
*491 cbx_8__8_\.cbx_1__8_\.mux_top_ipin_8\.sky130_fd_sc_hd__mux2_1_10_X
*492 cbx_8__8_\.cbx_1__8_\.mux_top_ipin_8\.sky130_fd_sc_hd__mux2_1_11_X
*493 cbx_8__8_\.cbx_1__8_\.mux_top_ipin_8\.sky130_fd_sc_hd__mux2_1_1_X
*494 cbx_8__8_\.cbx_1__8_\.mux_top_ipin_8\.sky130_fd_sc_hd__mux2_1_2_X
*495 cbx_8__8_\.cbx_1__8_\.mux_top_ipin_8\.sky130_fd_sc_hd__mux2_1_3_X
*496 cbx_8__8_\.cbx_1__8_\.mux_top_ipin_8\.sky130_fd_sc_hd__mux2_1_4_X
*497 cbx_8__8_\.cbx_1__8_\.mux_top_ipin_8\.sky130_fd_sc_hd__mux2_1_5_X
*498 cbx_8__8_\.cbx_1__8_\.mux_top_ipin_8\.sky130_fd_sc_hd__mux2_1_6_X
*499 cbx_8__8_\.cbx_1__8_\.mux_top_ipin_8\.sky130_fd_sc_hd__mux2_1_7_X
*500 cbx_8__8_\.cbx_1__8_\.mux_top_ipin_8\.sky130_fd_sc_hd__mux2_1_8_X
*501 cbx_8__8_\.cbx_1__8_\.mux_top_ipin_8\.sky130_fd_sc_hd__mux2_1_9_X
*502 cbx_8__8_\.cbx_1__8_\.mux_top_ipin_9\.sky130_fd_sc_hd__mux2_1_0_X
*503 cbx_8__8_\.cbx_1__8_\.mux_top_ipin_9\.sky130_fd_sc_hd__mux2_1_1_X
*504 cbx_8__8_\.cbx_1__8_\.mux_top_ipin_9\.sky130_fd_sc_hd__mux2_1_2_X
*505 cbx_8__8_\.cbx_1__8_\.mux_top_ipin_9\.sky130_fd_sc_hd__mux2_1_3_X
*506 cbx_8__8_\.cbx_1__8_\.mux_top_ipin_9\.sky130_fd_sc_hd__mux2_1_4_X
*507 cbx_8__8_\.cbx_1__8_\.mux_top_ipin_9\.sky130_fd_sc_hd__mux2_1_5_X
*508 cbx_8__8_\.cbx_1__8_\.mux_top_ipin_9\.sky130_fd_sc_hd__mux2_1_6_X
*509 cbx_8__8_\.cbx_1__8_\.mux_top_ipin_9\.sky130_fd_sc_hd__mux2_1_7_X
*510 cbx_8__8_\.cbx_1__8_\.mux_top_ipin_9\.sky130_fd_sc_hd__mux2_1_8_X
*511 cbx_8__8_\.cbx_1__8_\.mux_top_ipin_9\.sky130_fd_sc_hd__mux2_1_9_X
*512 cbx_8__8_\.grid_io_top_top_1__9_\.logical_tile_io_mode_io__0\.ccff_tail
*513 cbx_8__8_\.grid_io_top_top_1__9_\.logical_tile_io_mode_io__0\.gfpga_pad_io_soc_dir
*514 cbx_8__8_\.grid_io_top_top_1__9_\.logical_tile_io_mode_io__0\.logical_tile_io_mode_physical__iopad_0\.io_0_\.SOC_DIR_N
*515 cbx_8__8_\.grid_io_top_top_1__9_\.logical_tile_io_mode_io__1\.ccff_tail
*516 cbx_8__8_\.grid_io_top_top_1__9_\.logical_tile_io_mode_io__1\.gfpga_pad_io_soc_dir
*517 cbx_8__8_\.grid_io_top_top_1__9_\.logical_tile_io_mode_io__1\.logical_tile_io_mode_physical__iopad_0\.io_0_\.SOC_DIR_N
*518 cbx_8__8_\.grid_io_top_top_1__9_\.logical_tile_io_mode_io__2\.ccff_tail
*519 cbx_8__8_\.grid_io_top_top_1__9_\.logical_tile_io_mode_io__2\.gfpga_pad_io_soc_dir
*520 cbx_8__8_\.grid_io_top_top_1__9_\.logical_tile_io_mode_io__2\.logical_tile_io_mode_physical__iopad_0\.io_0_\.SOC_DIR_N
*521 cbx_8__8_\.grid_io_top_top_1__9_\.logical_tile_io_mode_io__3\.gfpga_pad_io_soc_dir
*522 cbx_8__8_\.grid_io_top_top_1__9_\.logical_tile_io_mode_io__3\.logical_tile_io_mode_physical__iopad_0\.io_0_\.SOC_DIR_N
*523 cby_8__8_\.cby_8__8_\.ccff_tail
*524 cby_8__8_\.cby_8__8_\.left_grid_right_width_0_height_0_subtile_0__pin_I4_0_
*525 cby_8__8_\.cby_8__8_\.left_grid_right_width_0_height_0_subtile_0__pin_I4_1_
*526 cby_8__8_\.cby_8__8_\.left_grid_right_width_0_height_0_subtile_0__pin_I4i_0_
*527 cby_8__8_\.cby_8__8_\.left_grid_right_width_0_height_0_subtile_0__pin_I4i_1_
*528 cby_8__8_\.cby_8__8_\.left_grid_right_width_0_height_0_subtile_0__pin_I5_0_
*529 cby_8__8_\.cby_8__8_\.left_grid_right_width_0_height_0_subtile_0__pin_I5_1_
*530 cby_8__8_\.cby_8__8_\.left_grid_right_width_0_height_0_subtile_0__pin_I5i_0_
*531 cby_8__8_\.cby_8__8_\.left_grid_right_width_0_height_0_subtile_0__pin_I5i_1_
*532 cby_8__8_\.cby_8__8_\.left_grid_right_width_0_height_0_subtile_0__pin_I6_0_
*533 cby_8__8_\.cby_8__8_\.left_grid_right_width_0_height_0_subtile_0__pin_I6_1_
*534 cby_8__8_\.cby_8__8_\.left_grid_right_width_0_height_0_subtile_0__pin_I6i_0_
*535 cby_8__8_\.cby_8__8_\.left_grid_right_width_0_height_0_subtile_0__pin_I6i_1_
*536 cby_8__8_\.cby_8__8_\.left_grid_right_width_0_height_0_subtile_0__pin_I7_0_
*537 cby_8__8_\.cby_8__8_\.left_grid_right_width_0_height_0_subtile_0__pin_I7_1_
*538 cby_8__8_\.cby_8__8_\.left_grid_right_width_0_height_0_subtile_0__pin_I7i_0_
*539 cby_8__8_\.cby_8__8_\.left_grid_right_width_0_height_0_subtile_0__pin_I7i_1_
*540 cby_8__8_\.cby_8__8_\.mem_left_ipin_0\.ccff_tail
*541 cby_8__8_\.cby_8__8_\.mem_left_ipin_0\.mem_out\[0\]
*542 cby_8__8_\.cby_8__8_\.mem_left_ipin_0\.mem_out\[1\]
*543 cby_8__8_\.cby_8__8_\.mem_left_ipin_0\.mem_out\[2\]